22
Coordinates from ORCA-job mp2_opt
  C   1.46887316742902      0.76840661514857     -0.87058568695553
  C   2.85955887579403      0.76534669087568     -0.84510580076477
  C   3.54779124635550     -0.11446587750074     -0.00995581789205
  H   0.91964530024042      1.45031970474989     -1.50806014673043
  H   3.40750634104131      1.45091952211666     -1.48100811830048
  H   4.63125782584663     -0.11198085302245      0.00507746925361
  C   -2.79355115405431      0.83776802345623      0.31488288957492
  H   -3.36671268055229      1.69730309564521      0.63935829463521
  C   -2.62270527496496     -1.43474837594605     -0.48474800573171
  H   -3.07485818738879     -2.36219606760567     -0.80567695557389
  C   -1.26488085798222     -1.31251972364508     -0.47679720175216
  H   -0.59373339879844     -2.10504622087250     -0.78429218075562
  C   -1.36039508069137      1.00309158524643      0.33146379036531
  C   -3.39744757222096     -0.32447822014975     -0.07260492846833
  H   -4.47977237696182     -0.39467920470579     -0.06411273569540
  C   2.84161539095138     -0.99204585336173      0.80940840319333
  H   3.37180819468599     -1.67149865508154      1.46661699134697
  N   -0.65449751670287     -0.15204912551390     -0.09290006561271
  O   -0.75647135450874      2.01573779712795      0.67287542026510
  C   1.44891352267207     -0.99174215080032      0.79517866156208
  H   0.88276284469496     -1.65394067151451      1.44136503577829
  C   0.77426174511547     -0.11485803464658     -0.04960731174173
