22
Coordinates from ORCA-job mp2_opt
  C   1.46501798085612      0.42225318461695     -1.11936500062217
  C   2.85620450350924      0.43480852522606     -1.09409621489122
  C   3.54261609573077     -0.10392334662946     -0.00651827753767
  H   0.91217008590330      0.84476910237448     -1.95041286249367
  H   3.40479383597041      0.86563967879026     -1.92350593934506
  H   4.62607922535556     -0.09177160497773      0.00952485538262
  C   -2.78314727450104      0.87596120940527      0.23673944803722
  H   -3.34911034930512      1.76597249841228      0.48212872165718
  C   -2.63633368943358     -1.45964028023766     -0.36930029404219
  H   -3.09948877191512     -2.40657445423590     -0.60666062653873
  C   -1.27669928754291     -1.35392379330484     -0.36469655214636
  H   -0.61130635166050     -2.17861056071220     -0.58972453303875
  C   -1.34735607926487      1.02071184021514      0.25359506936114
  C   -3.39828664821556     -0.30759920597537     -0.05917233886077
  H   -4.48156800559770     -0.36305989330167     -0.05440003377372
  C   2.83704067938286     -0.65383537056418      1.06176927152979
  H   3.36916799446258     -1.06835819331113      1.91001532550994
  N   -0.65869521756649     -0.17097066296256     -0.07858249285861
  O   -0.72381301885113      2.04412054561279      0.51889832020421
  C   1.44445409187038     -0.66575833654702      1.04633514716152
  H   0.87611481445315     -1.07594973370532      1.87381615926927
  C   0.77234338635964     -0.12865514818817     -0.04650215196397
