22
Coordinates from ORCA-job mp2_opt
  C   1.45350507775938     -0.12603128807273     -1.21204453321698
  C   2.84553591312763     -0.10330737519174     -1.20770388504873
  C   3.54171021558856     -0.09827900335953     -0.00002715590955
  H   0.89314677624969     -0.11717598173423     -2.14009298968114
  H   3.38553481117387     -0.08444361186494     -2.14716241589939
  H   4.62521884068437     -0.07833711657444      0.00016770249061
  C   -2.77665441895722      0.91590801669463      0.00277217179815
  H   -3.33542442094425      1.84352611105176      0.00567381844804
  C   -2.64696328033604     -1.49818985212582     -0.00441498642159
  H   -3.11745225130227     -2.47085948563591     -0.00718686510912
  C   -1.28632864394491     -1.40409547424318     -0.00429579969033
  H   -0.62702169451316     -2.26361665858149     -0.00688527339015
  C   -1.33989376089482      1.05030993827509      0.00290171819107
  C   -3.40042211837325     -0.29975390553035     -0.00074494364652
  H   -4.48419165310153     -0.34516032615153     -0.00071618759027
  C   2.84531496892377     -0.11407436569003      1.20742439221950
  H   3.38514478289684     -0.10345722413220      2.14711056979776
  N   -0.66076374006922     -0.19129021313996     -0.00084559621325
  O   -0.70743337626371      2.10256456426054      0.00661212765096
  C   1.45327127447407     -0.13688021595778      1.21128862800383
  H   0.89274530506240     -0.13633016870091      2.13928504549623
  C   0.77092439275981     -0.14963836359525     -0.00052454227915
