22
Coordinates from ORCA-job mp2_opt
  C   1.44204057525287     -0.92211756353288      0.86709445070244
  C   2.83462902325194     -0.91367233251185      0.89116923773989
  C   3.54300595117372     -0.11144397712578     -0.00063034806980
  H   0.87234602589869     -1.52385322947213      1.56700570317467
  H   3.36346092535773     -1.52442800435370      1.61362629117696
  H   4.62628512846382     -0.10161843977744      0.02276031468889
  C   -2.77888926008390      0.85773363572836      0.32425702764536
  H   -3.33961911167979      1.72381561487323      0.65297946604485
  C   -2.64440196704675     -1.41684224239625     -0.47992081284734
  H   -3.11151114506015     -2.33829857183946     -0.79658634419470
  C   -1.28483967205905     -1.31355072097416     -0.47968845148660
  H   -0.62502847661833     -2.11582075750089     -0.78681041388419
  C   -1.34313458231716      1.00218158804252      0.33393293847329
  C   -3.40057471330598     -0.29556329746444     -0.06271640367681
  H   -4.48375705769863     -0.35018764029215     -0.04860309574903
  C   2.85825727788394      0.68417720924508     -0.91887826923061
  H   3.40843265500482      1.31492343496853     -1.60738376451426
  N   -0.65814113813178     -0.16124577494480     -0.09936980220177
  O   -0.72000707629503      2.00318278601055      0.67458567783588
  C   1.46767749439552      0.67712219837977     -0.95394319615957
  H   0.91854803386764      1.29851876920923     -1.65120548144169
  C   0.77183910974585     -0.13763468427135     -0.06660372402586
