22
Coordinates from ORCA-job mp2_opt
  C   1.50687912762459     -1.20340333028208      0.49071290247826
  C   2.89655443860864     -1.20728836992552      0.42873836274302
  C   3.57868904426653     -0.10359491996301     -0.07618567353650
  H   0.98798331218234     -2.04899481722413      0.92625848883707
  H   3.44239671620853     -2.07514260123632      0.78022375037195
  H   4.66125633923293     -0.10469510259996     -0.12235572589764
  C   -2.84443429152989      0.81038002718822      0.18603763305513
  H   -3.44743028339722      1.68809231737818      0.38209406467272
  C   -2.57370526735592     -1.51028734002785     -0.37379027419310
  H   -2.97502262463865     -2.47263359491570     -0.65823937784827
  C   -1.22399600368160     -1.34721928716264     -0.30010940439332
  H   -0.53478148333935     -2.14246555878920     -0.54607394193472
  C   -1.41842184282212      1.02514997250463      0.24819274994416
  C   -3.40478555896567     -0.39753616095812     -0.10695335938245
  H   -4.48366522231946     -0.49861199154217     -0.14884977463310
  C   2.85675706536480      1.00428227082132     -0.51294158932418
  H   3.37654568937738      1.86738726930640     -0.91256094246131
  N   -0.64420035278089     -0.15190857454886      0.04515948387659
  O   -0.89417341380634      2.10842103461379      0.49403511283710
  C   1.46602760129253      1.02247243842508     -0.45569822747278
  H   0.91430881949951      1.88277137520645     -0.80167946404899
  C   0.78751019097936     -0.08405905626853      0.06103920631037
