22
Coordinates from ORCA-job mp2_opt
  C   1.47706002199080     -1.14323441214981      0.60533805509266
  C   2.86892729667319     -1.14728317441403      0.58705369514350
  C   3.56190414582538     -0.11287902422197     -0.03660192179961
  H   0.93130654517584     -1.92799233603953      1.11727795145735
  H   3.40830141539725     -1.95547213926665      1.06720213842637
  H   4.64543003195390     -0.11340609378592     -0.04756561983474
  C   -2.81905596810786      0.82367095705877      0.26799701748210
  H   -3.40858322449239      1.68956545141459      0.54218615913961
  C   -2.59772134965235     -1.46964754963824     -0.43784408958466
  H   -3.02555466639510     -2.41205228031064     -0.74870476867997
  C   -1.24323884008161     -1.32636903775093     -0.40318273549007
  H   -0.56129776078415     -2.11570655906534     -0.69153904284160
  C   -1.38956175014318      1.01728043491462      0.29592156635870
  C   -3.40048255065047     -0.36103703892816     -0.08024183845751
  H   -4.48149944433429     -0.44780145244437     -0.08954067684052
  C   2.85606970722129      0.92696179636754     -0.63963097204605
  H   3.39066527977699      1.73443910403895     -1.12631405696092
  N   -0.64848777970143     -0.15065671742654     -0.03082709791879
  O   -0.82484001064100      2.06670339426845      0.59080011730171
  C   1.46484177799378      0.94144431468832     -0.62900636279287
  H   0.91385228529325      1.74658482689958     -1.09448740410014
  C   0.78016183768215     -0.09884046420868     -0.00237611305454
