22
Coordinates from ORCA-job mp2_opt
  C   1.48659165566250      1.04162802043234     -0.40864122534385
  C   2.87953458047470      1.02379284780283     -0.42070903290042
  C   3.58955027094171     -0.10586552188532     -0.02573548225888
  H   0.95055153588220      1.92685501837666     -0.71013199455882
  H   3.40952345390555      1.91682115679208     -0.73144447475240
  H   4.67311602719198     -0.10305876141026     -0.03148037656083
  C   -2.83998309338695      0.81594327801935      0.21002977710499
  H   -3.43028602180485      1.70107449890651      0.41154065683143
  C   -2.59654254681552     -1.51009082605298     -0.32432463586332
  H   -3.00832555150193     -2.47501043993714     -0.58429437561678
  C   -1.24553167288840     -1.34847340955746     -0.30117202286050
  H   -0.57164076764681     -2.14949942848822     -0.56835722642785
  C   -1.41179908952957      1.03007911899674      0.21176804814281
  C   -3.41628440353361     -0.39277141873174     -0.04218458818299
  H   -4.49623512658578     -0.49078977019541     -0.04286874718909
  C   2.89082074769982     -1.23532292172693      0.39321721682846
  H   3.42428508051062     -2.11439144355809      0.73600149234993
  N   -0.64383495479766     -0.15362867361166      0.01607258779427
  O   -0.88874313790913      2.12272870744638      0.41459216457528
  C   1.50075871105691     -1.23322597543943      0.40796122338602
  H   0.97397603609353     -2.09554547610486      0.79753637886127
  C   0.78953626698066     -0.11074058007340     -0.03578436335871
