22
Coordinates from ORCA-job mp2_opt
  C   1.45927665682010     -1.08638918025933      0.69108862724491
  C   2.85178994309304     -1.08845113506405      0.69498692293730
  C   3.55254199755660     -0.11756660353781     -0.01649273081761
  H   0.90039825639447     -1.81955809602846      1.26245154545261
  H   3.38576808014328     -1.84185332780244      1.26235215011083
  H   4.63610836640578     -0.11631973988007     -0.00965832500620
  C   -2.80096051253489      0.83617189153116      0.30926436571428
  H   -3.37785182770297      1.69770561193669      0.62149059309434
  C   -2.61836831034243     -1.44000634944617     -0.47058886173313
  H   -3.06419699553852     -2.36989232220201     -0.79340872734351
  C   -1.26141267936335     -1.31323687290951     -0.45501819412278
  H   -0.58868636427717     -2.10366672090226     -0.76351014335256
  C   -1.36872315762839      1.00908225426917      0.32810871378307
  C   -3.40014701525116     -0.33081803292297     -0.06982408917478
  H   -4.48224315934524     -0.40413988787587     -0.06630697680830
  C   2.85728642236723      0.85718144088234     -0.73155235822765
  H   3.40033207661226      1.61574532754322     -1.28318665240463
  N   -0.65256463618002     -0.15130501780355     -0.06856295760131
  O   -0.77767389263344      2.03284215163769      0.65839101611198
  C   1.46632051719519      0.86603713706108     -0.74496679262364
  H   0.91665511855908      1.62101262717494     -1.29174871538185
  C   0.77596411565056     -0.11398715540180     -0.03607340985137
