22
Coordinates from ORCA-job mp2_opt
  C   1.46613337552999      0.90900908939425      0.68283889188861
  C   2.85738187206673      0.90316667301019      0.66993074083061
  C   3.55771976686800     -0.10963268083547      0.01615704046005
  H   0.91690686633313      1.69549542134197      1.18203533826609
  H   3.39641912070867      1.69857753561264      1.17131756476706
  H   4.64125997255259     -0.10334272636665      0.00799202234816
  C   -2.80410426092717      0.83250636782077     -0.29245930422395
  H   -3.38171377550057      1.69941892671127     -0.58803466040374
  C   -2.61642831864402     -1.45455519945091      0.44721091105559
  H   -3.05903418444088     -2.38972893694938      0.75909124874029
  C   -1.26008913166898     -1.32425557243501      0.43269000700298
  H   -0.58805159042235     -2.11719283176236      0.73532352007837
  C   -1.37245322515179      1.01110823094324     -0.30460813904549
  C   -3.40180028672859     -0.34178764585286      0.06445428445630
  H   -4.48369997441708     -0.41745133592178      0.05931650060652
  C   2.86050526402170     -1.12467621468749     -0.63443385690318
  H   3.39675993116328     -1.90715802805894     -1.15864111867566
  N   -0.65027704500272     -0.15737622406295      0.05932911984673
  O   -0.79000717863611      2.04694910805672     -0.61180147635359
  C   1.46838886827297     -1.12805705419014     -0.62972789092774
  H   0.91523905783779     -1.89390790245233     -1.16222704853736
  C   0.77858287618540     -0.12049799986478      0.04350530472338
