22
Coordinates from ORCA-job mp2_opt
  C   1.49673220397499     -1.18525899247930     -0.52734798503164
  C   2.88732449675103     -1.18964685085049     -0.48162438357254
  C   3.57301090793398     -0.10638156408089      0.06152846941064
  H   0.96787009413928     -2.01177661239821     -0.98764318992360
  H   3.43127155988047     -2.03981968912952     -0.87654813199488
  H   4.65608080046869     -0.10740232831721      0.09420467215849
  C   -2.83672011793218      0.81360780488033     -0.21434428580934
  H   -3.43656373716429      1.68679394930432     -0.43833727478684
  C   -2.58011102825091     -1.49864358149829      0.39617484493093
  H   -2.98973829860795     -2.45475603602744      0.68949740601489
  C   -1.22870501719941     -1.34072732566547      0.33775124522029
  H   -0.54063615037829     -2.13283230400467      0.59924861602707
  C   -1.40964050362006      1.02345201251849     -0.26114785611457
  C   -3.40275575013557     -0.38786052018597      0.09631606225225
  H   -4.48243500680323     -0.48551001784337      0.12479570132139
  C   2.85642449059822      0.98190196715214      0.55439101012771
  H   3.38145402743177      1.82815402925113      0.98213005952783
  N   -0.64525886027923     -0.15113605035977     -0.01607935958629
  O   -0.87235388481201      2.09689836649047     -0.52047292444935
  C   1.46532148326029      0.99925237305756      0.51501260341101
  H   0.91375008169190      1.84303965612194      0.90153956650889
  C   0.78500120905255     -0.08744828593578     -0.03738486564233
