22
Coordinates from ORCA-job mp2_opt
  C   1.48152333264165      1.02155583993868      0.46463871503653
  C   2.87415293438921      1.00573945427269      0.46925143181911
  C   3.58206207710614     -0.10656977945037      0.02248756844492
  H   0.94306873316725      1.89136429929731      0.80610505426676
  H   3.40633650048138      1.88360771355325      0.81696643501079
  H   4.66561914132398     -0.10280719676237      0.02377351614785
  C   -2.83230022677026      0.81996659656246     -0.22621965822684
  H   -3.42099208549774      1.70125895954405     -0.44803508832727
  C   -2.59978816826855     -1.49997783149878      0.35047795292891
  H   -3.01780148923924     -2.45922932736922      0.62095292211623
  C   -1.24770239507204     -1.34413361223539      0.33037181691911
  H   -0.57316792461916     -2.14274223782268      0.60540090857194
  C   -1.40357542041956      1.02843882132085     -0.22758105666142
  C   -3.41244077569739     -0.38317106077493      0.04639423027564
  H   -4.49276752194766     -0.47707881758196      0.04410561220556
  C   2.88404917031839     -1.21925786688179     -0.44037197518701
  H   3.41842730205510     -2.08287786142029     -0.81893725424748
  N   -0.64488252948820     -0.15436558343371      0.00235015892345
  O   -0.86849841021019      2.11126808863430     -0.44968442727471
  C   1.49361039861525     -1.21800024228112     -0.44976050236745
  H   0.95987259311667     -2.06366494447790     -0.86652213287054
  C   0.78732976401497     -0.11307541113309      0.03918777249590
