22
Coordinates from ORCA-job mp2_opt
  C   1.44473621498501     -0.99475596951044      0.79611181685730
  C   2.83732779595354     -0.99125010844834      0.81763661978040
  C   3.54536354201201     -0.11554597922062     -0.00219933439863
  H   0.87642690626962     -1.65309059414625      1.44432997892267
  H   3.36607245115185     -1.66349418230086      1.48335228332178
  H   4.62870709254463     -0.10941413773119      0.01921766937797
  C   -2.78468364164575      0.84948997165715      0.32885564762343
  H   -3.34969169034207      1.71128068176950      0.66148353982617
  C   -2.63733862307222     -1.41989856859209     -0.48495006053638
  H   -3.09872502074109     -2.34205554865844     -0.80795402408094
  C   -1.27857290075767     -1.30863226890227     -0.48443312281952
  H   -0.61526632344592     -2.10488752175722     -0.79932053462489
  C   -1.34999629742305      1.00319821168865      0.33810889621466
  C   -3.40031280733744     -0.30549978945804     -0.06212617464566
  H   -4.48313538455750     -0.36642557212180     -0.04773902710888
  C   2.85940653364250      0.75853352180890     -0.84512050569105
  H   3.40896498786626      1.44533488654985     -1.47828423438741
  N   -0.65650468264178     -0.15531520627054     -0.09767468420432
  O   -0.73588857052908      2.00849739452522      0.68247254221955
  C   1.46884057432048      0.75762617541135     -0.87800697284464
  H   0.92090975502238      1.43749760765600     -1.51877385829276
  C   0.77279808872527     -0.13001600394853     -0.06320546050887
