22
Coordinates from ORCA-job mp2_opt
  C   1.47698856743738      0.99871357753379      0.51985399910081
  C   2.86925573642335      0.98556123473467      0.51719005587218
  C   3.57504307420023     -0.10686890710084      0.01917218488986
  H   0.93608852774111      1.85126860370822      0.90081859168007
  H   3.40347398330775      1.84682688202175      0.90131877712907
  H   4.65860231169811     -0.10195634987776      0.01604215917560
  C   -2.82439384466047      0.82386188054285     -0.24351974934765
  H   -3.41027657166555      1.70164752114632     -0.48579843833506
  C   -2.60402374616677     -1.48913247197433      0.37510484397613
  H   -3.02884334745579     -2.44251532507281      0.65539467694081
  C   -1.25077591910835     -1.33954732218990      0.35891735982407
  H   -0.57663048653672     -2.13647416834818      0.64173214469825
  C   -1.39508126596799      1.02577915663450     -0.24372476283590
  C   -3.40917210028592     -0.37297726293604      0.04901734034240
  H   -4.48989417595051     -0.46263154655235      0.04320447826702
  C   2.87734020328247     -1.20059967932241     -0.48732315045716
  H   3.41222100264977     -2.04740099881841     -0.90146079154197
  N   -0.64610087391187     -0.15512810082035      0.02095224209891
  O   -0.84736752974528      2.09797186643400     -0.48487564887594
  C   1.48648743550438     -1.20067602083492     -0.49113963395962
  H   0.94670315120459     -2.02925608363821     -0.93452474773155
  C   0.78498786800610     -0.11542848526961      0.04265806908969
