22
Coordinates from ORCA-job mp2_opt
  C   1.45919869220511     -1.08655086695386     -0.69100239356609
  C   2.85171323574466     -1.08870175815357     -0.69483660980766
  C   3.55249781635425     -0.11776511938170      0.01654067921983
  H   0.90029766197517     -1.81977040352657     -1.26227836042631
  H   3.38567013170432     -1.84222178516941     -1.26206424196205
  H   4.63606467385106     -0.11659186062918      0.00975485740036
  C   -2.80093737212618      0.83633512885121     -0.30958151403219
  H   -3.37777112679379      1.69784951086029     -0.62196721779832
  C   -2.61850327351450     -1.43971664535311      0.47068020203486
  H   -3.06439660183598     -2.36951493483868      0.79366351421712
  C   -1.26153896651353     -1.31303918398321      0.45510037658544
  H   -0.58886659268159     -2.10345603448305      0.76374305848101
  C   -1.36868662248265      1.00914442920563     -0.32845244454654
  C   -3.40020401648942     -0.33054901063566      0.06970702022112
  H   -4.48230504280005     -0.40379990963655      0.06619253431993
  C   2.85727485886815      0.85712968223506      0.73143022075521
  H   3.40034556344180      1.61573108647234      1.28298872123851
  N   -0.65261204495229     -0.15121902707697      0.06843338937632
  O   -0.77756343768249      2.03279938638096     -0.65893103380391
  C   1.46630920763267      0.86608312074415      0.74476962668066
  H   0.91666609432878      1.62117230505082      1.29141731907743
  C   0.77592016176650     -0.11399510997895      0.03598229633527
