22
Coordinates from ORCA-job mp2_opt
  C   1.53702036841680     -1.27119487829289      0.30174252204061
  C   2.92281217745455     -1.26663368529349      0.19232660463337
  C   3.60525648877547     -0.09454058898392     -0.11858308276087
  H   1.05995614639414     -2.19413647229318      0.60070460865280
  H   3.46447319906197     -2.19203220219620      0.35117523788517
  H   4.68515758780662     -0.09251604492489     -0.20708220024295
  C   -2.86377585223239      0.81239759410222      0.07087462992404
  H   -3.46121363335834      1.71240989662298      0.14464841915274
  C   -2.57858349074344     -1.54010732944634     -0.23402765033557
  H   -2.96179993286549     -2.52904305265210     -0.44302052326501
  C   -1.23390160117968     -1.36830407633999     -0.12275696186409
  H   -0.56193433380683     -2.19449537502367     -0.28356375392128
  C   -1.44011511841275      1.03103998211208      0.18577292796398
  C   -3.42377182921529     -0.41274416390696     -0.12060575248733
  H   -4.49985083584735     -0.51706535373414     -0.20261566040269
  C   2.87517070201000      1.07416803154614     -0.29952326052960
  H   3.38223555707367      2.00007835251185     -0.54616140532940
  N   -0.64362004645319     -0.15182361436317      0.14050722435252
  O   -0.95743742726421      2.14643721598285      0.36774222300806
  C   1.48639324362125      1.08792086016676     -0.18693554394534
  H   0.94435028119453      2.00470380080912     -0.34316821544116
  C   0.79787534956995     -0.08990189640308      0.13394961291201
