22
Coordinates from ORCA-job mp2_opt
  C   1.53152227505993     -1.25422589691321     -0.36137388951347
  C   2.91794563005952     -1.25312989018260     -0.25781887097086
  C   3.59732062535742     -0.09698623748959      0.11463304138053
  H   1.04418732643558     -2.15658168218400     -0.70608708581087
  H   3.46272028032884     -2.16580231655734     -0.47017226160245
  H   4.67765950529342     -0.09666032262488      0.19742255300593
  C   -2.86065174291611      0.80911859760600     -0.09850142659084
  H   -3.46252146942990      1.70300174565081     -0.20380045458542
  C   -2.57085440609622     -1.53562673648682      0.28102073489107
  H   -2.95508951295560     -2.51756185708944      0.51880291287574
  C   -1.22573663247332     -1.36380612369724      0.17142856229444
  H   -0.54519576162759     -2.17880937069230      0.35854964331994
  C   -1.43707677894540      1.02920300244438     -0.20617529225482
  C   -3.41635557775150     -0.41312390498430      0.12642998464326
  H   -4.49269538307064     -0.51850851098832      0.20392725603301
  C   2.86678413352386      1.05914303250612      0.36661302782591
  H   3.37501211197310      1.96960916647022      0.66300158353121
  N   -0.64318131561143     -0.15239895701981     -0.12499183388317
  O   -0.94637366823662      2.13722708951720     -0.40997864264368
  C   1.47785983901719      1.07572872188774      0.26133460039576
  H   0.93144925438704      1.97987529889655      0.47128155790419
  C   0.79532726767843     -0.08489484806915     -0.12350370024539
