22
Coordinates from ORCA-job mp2_opt
  C   1.46874020777316      0.94250887515142      0.62856164353143
  C   2.86028397785100      0.93489832591711      0.61772012701530
  C   3.56269003336142     -0.10794576538694      0.01647596093144
  H   0.92202307003875      1.75361345488809      1.08793286468188
  H   3.39759046879297      1.75558371021882      1.07862431465434
  H   4.64622827706069     -0.10131884493368      0.00892962852032
  C   -2.80973402887293      0.83043593439160     -0.27758176125561
  H   -3.38957855852388      1.70110263925980     -0.55730158051828
  C   -2.61295358602816     -1.46572961326471      0.42416130043881
  H   -3.05060859666113     -2.40661845353038      0.72579107866659
  C   -1.25747661978339     -1.32976449446264      0.41019325177396
  H   -0.58491980961494     -2.12410225079570      0.70687491735044
  C   -1.37885338022138      1.01651438473739     -0.28382507774485
  C   -3.40388200543855     -0.35139140536896      0.05832935796712
  H   -4.48543950490346     -0.43130818666160      0.05160993450776
  C   2.86581456081087     -1.15358998236158     -0.58397134209724
  H   3.40196286517827     -1.96004100256257     -1.07061976060721
  N   -0.64883086406005     -0.15727816691445      0.04888195716551
  O   -0.80653169503495      2.06445475624684     -0.56864894592894
  C   1.47409784215036     -1.15667203657520     -0.58091423584462
  H   0.92491737264835     -1.94607721926766     -1.08183969079233
  C   0.78050997347696     -0.11980765872499      0.04452405758418
