22
Coordinates from ORCA-job mp2_opt
  C   1.45341907766157     -0.12536374592214      1.21207603449155
  C   2.84545299979041     -0.10272967182462      1.20777105606966
  C   3.54166908422327     -0.09848109150110      0.00011573444031
  H   0.89302631790915     -0.11590694914423      2.14009776438102
  H   3.38541287603044     -0.08333723832659      2.14724003656889
  H   4.62517785930345     -0.07859989039296     -0.00005965268234
  C   -2.77662490426736      0.91612397021556     -0.00330175181726
  H   -3.33533270613429      1.84377718794252     -0.00657757341042
  C   -2.64710809507969     -1.49798435826350      0.00513111701236
  H   -3.11767237846030     -2.47061422615955      0.00844600237053
  C   -1.28646838467402     -1.40398278785845      0.00498204503321
  H   -0.62722063272846     -2.26354743392100      0.00808632047269
  C   -1.33985302874090      1.05042966314631     -0.00374670785893
  C   -3.40047574428866     -0.29949106597867      0.00087149694578
  H   -4.48424762180971     -0.34481935519539      0.00095501740270
  C   2.84531438506866     -0.11496471826142     -1.20735197412212
  H   3.38518653312889     -0.10493463874323     -2.14701885078986
  N   -0.66080960596741     -0.19122920555450      0.00082964504802
  O   -0.70732434843739      2.10263557452089     -0.00764830431710
  C   1.45327225214781     -0.13770003442726     -1.21124969501272
  H   0.89276856994217     -0.13766978780501     -2.13925888650284
  C   0.77087649538239     -0.14968419654567      0.00054712627688
