22
Coordinates from ORCA-job mp2_opt
  C   1.53149030464235     -1.25427507947599      0.36132743704007
  C   2.91791380850701     -1.25317867079407      0.25780714851000
  C   3.59731158495216     -0.09701694477538     -0.11454531479416
  H   1.04416562603321     -2.15665815389874      0.70598480594730
  H   3.46267229064415     -2.16587120416481      0.47011768324949
  H   4.67765324946514     -0.09668965727303     -0.19729848841384
  C   -2.86064917622646      0.80914379336740      0.09874162466735
  H   -3.46247302940064      1.70304172753378      0.20419375096627
  C   -2.57092239934178     -1.53556355121149     -0.28101324005898
  H   -2.95519529832810     -2.51746743801467     -0.51886496746743
  C   -1.22579428908141     -1.36377284825307     -0.17149436877371
  H   -0.54528876849729     -2.17877665483257     -0.35873838641586
  C   -1.43706018211047      1.02921321551314      0.20622715851635
  C   -3.41640044860230     -0.41306722284557     -0.12623366836454
  H   -4.49274973597220     -0.51844052031673     -0.20361443101581
  C   2.86678673527999      1.05913166798668     -0.36646895863978
  H   3.37502179938854      1.96962039315638     -0.66277756099340
  N   -0.64319828665667     -0.15240244624741      0.12499991105455
  O   -0.94632539375553      2.13722859593481      0.41001969030403
  C   1.47786048020388      1.07571673032522     -0.26122881717457
  H   0.93145618386439      1.97987854508906     -0.47113496794982
  C   0.79530294499203     -0.08492627680295      0.12350895980650
