22
Coordinates from ORCA-job mp2_opt
  C   1.46590486060589      0.87153153857845      0.73975459567788
  C   2.85690651097485      0.86645131214598      0.72329459328850
  C   3.55367187206799     -0.11190251160707      0.01480166649327
  H   0.91573901791835      1.63012811915834      1.28073241865845
  H   3.39874709735289      1.63223421342668      1.26606075482863
  H   4.63720605572703     -0.10704318348015      0.00508998619979
  C   -2.79993139788527      0.83397976174143     -0.30408843439651
  H   -3.37608187717863      1.69721463075112     -0.61297648399210
  C   -2.61879950860025     -1.44550766063621      0.46541667234346
  H   -3.06505912815584     -2.37670237973738      0.78383645137221
  C   -1.26186946617094     -1.31862859457111      0.45253287677231
  H   -0.59002700696300     -2.11034446531173      0.75957209027828
  C   -1.36770333143481      1.00726128209457     -0.31950743905610
  C   -3.40000408757806     -0.33459388286413      0.06846143657166
  H   -4.48209970797979     -0.40774299299298      0.06294784355538
  C   2.85424041862914     -1.09073795859846     -0.68704399680830
  H   3.38912353176257     -1.84615276976762     -1.25086589220140
  N   -0.65171616095482     -0.15542596886461      0.07147217664773
  O   -0.77716725251898      2.03316070857938     -0.64392484265244
  C   1.46181223398236     -1.09284778145122     -0.67988275773687
  H   0.90419835004049     -1.83121300774852     -1.24573192622210
  C   0.77687897635881     -0.11889840884477      0.04402621037829
