22
Coordinates from ORCA-job mp2_opt
  C   1.50795063396370      1.09018017549613      0.22727254447761
  C   2.90180681511587      1.07000879237583      0.24479688520644
  C   3.61335502376948     -0.10213793342119      0.02003555213919
  H   0.98081810500308      2.01195031189160      0.40170487886056
  H   3.42864981432118      2.00039179577696      0.42325022563779
  H   4.69679926042804     -0.10225002697190      0.02885678059573
  C   -2.86153343697197      0.80613558699007     -0.16921582678989
  H   -3.45451842875745      1.70026779109804     -0.31488182537747
  C   -2.59417342585941     -1.53677745136261      0.21999807014992
  H   -2.99066226937572     -2.52050978094970      0.42822995378416
  C   -1.24623172026435     -1.35819263601215      0.21529750739540
  H   -0.58145785977670     -2.17165100198269      0.45637214401095
  C   -1.43485102475130      1.03686918080425     -0.13271464260738
  C   -3.43037808996847     -0.41880159604273     -0.00424493771972
  H   -4.50873733039760     -0.52935882247966     -0.02320870467785
  C   2.90745546921121     -1.27365745649337     -0.23933744051647
  H   3.43444228422915     -2.19448581324423     -0.46129450331246
  N   -0.64192844928978     -0.14577451255257     -0.04070468198647
  O   -0.94685592762974      2.15948427727061     -0.23549263684111
  C   1.51816298212743     -1.27088860971440     -0.25662433666562
  H   1.01345036235695     -2.18393377002490     -0.53985618347595
  C   0.79628621251641     -0.10108950045139      0.03418117771264
