22
Coordinates from ORCA-job mp2_opt
  C   1.46857543887194      0.68851717172490      0.94777157922067
  C   2.85932251818844      0.68924943364537      0.92038707644104
  C   3.54575032408070     -0.11209902307420      0.00832606401288
  H   0.91861199321632      1.31122097944913      1.64323182389793
  H   3.40840782970256      1.31597788738013      1.61343094438092
  H   4.62919052647992     -0.10810236584166     -0.00819846804974
  C   -2.78997348875457      0.84287883555535     -0.31062255976397
  H   -3.36098125976963      1.70505638705035     -0.63187957084166
  C   -2.62633747258089     -1.43386781389998      0.48133871617956
  H   -3.08199901681806     -2.36146087263656      0.79678539692236
  C   -1.26792080438810     -1.31646297772193      0.47300424210598
  H   -0.59816285237932     -2.11321604636459      0.77277254188681
  C   -1.35602762235711      1.00216278950713     -0.32836905410748
  C   -3.39706456848738     -0.31880757783561      0.07414940290437
  H   -4.47964833616419     -0.38531184899190      0.06636792308246
  C   2.83863333948478     -0.91372098641437     -0.88494937160809
  H   3.36849529865125     -1.53252550280108     -1.59977618661123
  N   -0.65587462364850     -0.15573004709706      0.09457618789140
  O   -0.74526717796443      2.01157936270381     -0.66726758432695
  C   1.44588872738248     -0.91585542670320     -0.86854320949824
  H   0.87778756601802     -1.52040425706435     -1.56734772280164
  C   0.77353266123576     -0.11739310056969      0.05164382868261
