22
Coordinates from ORCA-job mp2_opt
  C   1.44198716378474     -0.82253291539735     -0.94822081485473
  C   2.83449548241863     -0.80553669524458     -0.97311182751451
  C   3.54148323976753     -0.10281009696516      0.00029024075803
  H   0.87269920015497     -1.34625014546553     -1.70841722218396
  H   3.36473602664315     -1.33078465791818     -1.75892240237926
  H   4.62468283350472     -0.08600114551717     -0.02387933606191
  C   -2.77358166637354      0.87123219041049     -0.29587916146414
  H   -3.32994603994248      1.74983870234856     -0.59775336351035
  C   -2.65079799894945     -1.42615480803968      0.44447485143070
  H   -3.12320795749936     -2.35397518185617      0.73342590335691
  C   -1.29048938241816     -1.33086265327422      0.44492897421069
  H   -0.63434406843213     -2.14598257088655      0.72504335113977
  C   -1.33680085072573      1.00528559420072     -0.30870903563017
  C   -3.40098485318344     -0.28853069942042      0.06176993638847
  H   -4.48455680711882     -0.33602241531548      0.05051164394731
  C   2.85620315397225      0.58457023621024      1.00162107149862
  H   3.40552601699993      1.13847207626166      1.75392447233023
  N   -0.65921692735411     -0.17152972947765      0.09653133601243
  O   -0.70555229237739      2.00820320106499     -0.62819422884353
  C   1.46554920474267      0.56782944943470      1.03690983256875
  H   0.91436394330484      1.10712981822527      1.79834250998840
  C   0.77143557908118     -0.14765055337849      0.06679126881225
