22
Coordinates from ORCA-job mp2_opt
  C   1.48660439798252      1.04160608383979      0.40862272619126
  C   2.87954745015175      1.02373974873719      0.42070748436243
  C   3.58954148282602     -0.10593448688123      0.02573595048244
  H   0.95057358712098      1.92684158387783      0.71010654292405
  H   3.40955484505589      1.91675456809611      0.73145047384325
  H   4.67310744369790     -0.10315341939560      0.03149298566103
  C   -2.83997111621307      0.81599347094544     -0.21006856579563
  H   -3.43025274416558      1.70113667286117     -0.41159026756012
  C   -2.59657164606195     -1.51003778885381      0.32430649831080
  H   -3.00836601970779     -2.47495030030945      0.58428658396420
  C   -1.24555771421650     -1.34844303604504      0.30115710111650
  H   -0.57168305743488     -2.14947879927595      0.56835437061970
  C   -1.41178467950972      1.03010553818823     -0.21180001281495
  C   -3.41629543451888     -0.39270929826471      0.04215304690385
  H   -4.49624788751092     -0.49070896445833      0.04283167247112
  C   2.89079201942792     -1.23537162717255     -0.39323328525639
  H   3.42424339497101     -2.11444830432706     -0.73601749642758
  N   -0.64384031883450     -0.15361103873975     -0.01609750926689
  O   -0.88871051007112      2.12274664117409     -0.41463483295584
  C   1.50073192247413     -1.23324767222863     -0.40798899580035
  H   0.97393498118519     -2.09555478430130     -0.79757223639952
  C   0.78953160335161     -0.11074978746645      0.03575976542665
