22
Coordinates from ORCA-job mp2_opt
  C   1.48655870693162     -1.16556706627418      0.56489921997942
  C   2.87788024773191     -1.17000354478241      0.53407813607405
  C   3.56736812451520     -0.10952055726280     -0.04804370090441
  H   0.94863124060485     -1.97211071641540      1.05010002968271
  H   3.41950117672634     -2.00054451372073      0.97166664806723
  H   4.65074218543780     -0.11033948972709     -0.06876163314014
  C   -2.82810910746857      0.81814114744240      0.24223175749107
  H   -3.42327081436948      1.68735301537232      0.49267043146087
  C   -2.58835184631328     -1.48492867599155     -0.41721802536176
  H   -3.00698149853833     -2.43437871070229     -0.71918692479355
  C   -1.23534800323947     -1.33365550374525     -0.37223262155100
  H   -0.54986353204285     -2.12386901739368     -0.64795178775880
  C   -1.39987938820488      1.02094899706482      0.27703278591625
  C   -3.40135899994612     -0.37555299505946     -0.08674142355327
  H   -4.48173764224453     -0.46844571051085     -0.10390379024192
  C   2.85632953345661      0.95637194628841     -0.59603176151492
  H   3.38642155859760      1.78437589424427     -1.05223552375376
  N   -0.64671828618213     -0.15059966540660     -0.00967031239950
  O   -0.84895660657907      2.08314431919425      0.55250388455936
  C   1.46507961909997      0.97248317197137     -0.57247867032236
  H   0.91389398360506      1.79815720316714     -0.99851944133914
  C   0.78251834842176     -0.09246552775268      0.01585872340356
