22
Coordinates from ORCA-job mp2_opt
  C   1.44242279266987     -0.67168090258658      1.04470605708128
  C   2.83474164858932     -0.64894757152083      1.06603362947255
  C   3.54061963249900     -0.09709889467568     -0.00109589811209
  H   0.87361439852349     -1.07938792821169      1.87308062122945
  H   3.36632124775306     -1.05199656923033      1.92012223004592
  H   4.62384735736480     -0.07540243419299      0.02005996263297
  C   -2.77145776675901      0.88945932367915      0.24073977874552
  H   -3.32626014254602      1.78601045178691      0.48784197945998
  C   -2.65356700695244     -1.44816103593063     -0.36346728888562
  H   -3.12829904597044     -2.39013120316758     -0.59764229472733
  C   -1.29283796787873     -1.35726057399073     -0.36537332703375
  H   -0.63781074186835     -2.18964679885644     -0.59251598586361
  C   -1.33416931035648      1.01898755471179      0.25044264813375
  C   -3.40118097136959     -0.28745242898674     -0.05103639383719
  H   -4.48497326183650     -0.33082055569758     -0.04107802511495
  C   2.85476227143437      0.43295481641712     -1.09324754422056
  H   3.40340088095722      0.87022031115991     -1.91924136849884
  N   -0.66012021498293     -0.18109833205177     -0.08341846864898
  O   -0.69891072778445      2.03615193028823      0.51161829925604
  C   1.46385917839121      0.40952883031577     -1.12436851300005
  H   0.91121863494058      0.82951527821192     -1.95681735237290
  C   0.77126511518200     -0.15438426747123     -0.05828174574157
