22
Coordinates from ORCA-job mp2_opt
  C   1.44244369436086     -0.67219292912197     -1.04451340690367
  C   2.83476139079722     -0.64943528564778     -1.06583598632421
  C   3.54061573828266     -0.09707294516053      0.00104312459480
  H   0.87365198916362     -1.08028170556253     -1.87271164867601
  H   3.36635916546162     -1.05285503946895     -1.91973925023943
  H   4.62384335334999     -0.07535584110018     -0.02011614903035
  C   -2.77143749249320      0.88936889284994     -0.24121597860497
  H   -3.32623181193983      1.78582064278134     -0.48869856983171
  C   -2.65359211738270     -1.44797297504330      0.36407980049135
  H   -3.12833802993216     -2.38982428418416      0.59870850820009
  C   -1.29285916358480     -1.35711514430701      0.36589395322030
  H   -0.63784551513333     -2.18941126185940      0.59340682341403
  C   -1.33414566784121      1.01883197846018     -0.25108042457789
  C   -3.40118411369705     -0.28738637735457      0.05114758758739
  H   -4.48497923064193     -0.33071522047781      0.04127396591422
  C   2.85473503433831      0.43346302658078      1.09294476249641
  H   3.40335399716026      0.87111527594535      1.91874801277330
  N   -0.66012134004595     -0.18110523503547      0.08335598485798
  O   -0.69885384397868      2.03582903304190     -0.51282159183592
  C   1.46383321335579      0.41001796160903      1.12406287475617
  H   0.91117298214609      0.83036788317163      1.95631619567672
  C   0.77126476825439     -0.15439245011649      0.05822341204139
