22
Coordinates from ORCA-job mp2_opt
  C   1.46337729369650      0.19873509397344      1.19248382002045
  C   2.85522077955451      0.20259560002970      1.17531933017756
  C   3.54253299957338     -0.11583362188124      0.00477588907898
  H   0.91004288170790      0.45027035658000      2.08999797584173
  H   3.40317235660120      0.45416967774626      2.07585794734340
  H   4.62620236450919     -0.11310376594114     -0.00448507953397
  C   -2.78855230259703      0.89845409020750     -0.14237107267646
  H   -3.35842098265586      1.80733098003024     -0.28996133881674
  C   -2.63219433104772     -1.48724024164421      0.21663118042470
  H   -3.09103752776248     -2.45545280487127      0.35638442783080
  C   -1.27312798643000     -1.37599958213419      0.21750724870387
  H   -0.60372788973125     -2.21714015124122      0.35184330558892
  C   -1.35329900335120      1.05147588146976     -0.14472523525721
  C   -3.39873437043681     -0.31173664674506      0.03010331238179
  H   -4.48180900557338     -0.37050536513752      0.02236475903191
  C   2.83734421642899     -0.43444447119247     -1.15435451141358
  H   3.37043900629180     -0.67830743960972     -2.06591261027337
  N   -0.66028285147116     -0.16767879383257      0.05018639590665
  O   -0.73660614717407      2.10252564255706     -0.29364115033332
  C   1.44478073149723     -0.43639381098896     -1.14641565577686
  H   0.87719768743740     -0.67157027894259     -2.03985989530410
  C   0.77139408093286     -0.12301934843183      0.02974095705485
