19
Coordinates from ORCA-job opt
  C   0.83285818053448      0.92666501171936      0.49698892838783
  C   -0.39121983916816      0.97695286696640     -0.11578803334712
  C   1.51753332964574     -0.31258058443977      0.53822602640982
  H   1.24202000762424      1.82255579380494      0.94277167690752
  N   -0.91880240126100     -0.16986931386165     -0.63870102220252
  C   -1.23315946792690      2.16958728997991     -0.17959659484343
  C   -0.32591233596733     -1.43896001672592     -0.63013263208919
  H   -1.81854431496111     -0.12428203797683     -1.10700379418150
  C   0.97083979258754     -1.44714345000479      0.00708030202919
  O   -0.90413345826215     -2.39647497120133     -1.13641990540991
  H   1.48662505557275     -2.39829929588871      0.03883569727584
  H   2.49149358659037     -0.36263402460901      1.01352050084698
  C   -2.47878637719229      2.36389847958715      0.39731299841111
  S   -0.68159274082327      3.60084947480674     -0.94017486565332
  C   -2.96844306557834      3.67007470084008      0.19809707237845
  H   -2.99127577065908      1.58819074971352      0.95322824427571
  C   -2.09036166109612      4.45975627363025     -0.51588631203906
  H   -3.91983299613734      4.02798207497381      0.56896932438439
  H   -2.21000452352203      5.49093297868583     -0.81452761154080
