19
Coordinates from ORCA-job opt
  C   0.58132809171716      0.77143312391305     -0.78359677412947
  C   -0.54513029126723      0.88146374030562     -0.00696264026719
  C   1.32340626770462     -0.43148039926428     -0.74015062472728
  H   0.90296446930825      1.61113259819678     -1.38292854332844
  N   -0.90399411351270     -0.17925529150279      0.77679997309353
  C   -1.39359252186520      2.06196267731737      0.00790737975442
  C   -0.22424312258834     -1.39915109531717      0.89640812194476
  H   -1.76623748310835     -0.14156442682284      1.31187479614403
  C   0.95288848655852     -1.47306051705000      0.06398379473800
  O   -0.65621548400673     -2.27272931093048      1.64282447683303
  H   1.51790144790106     -2.39536636159475      0.10378547373213
  H   2.21376456111598     -0.52286178256733     -1.35343552661671
  C   -1.48148833802004      3.06143867649812     -0.95093495171836
  S   -2.39511411802270      2.43290019984913      1.35469544405856
  C   -2.36803936555198      4.09096186680908     -0.58586697504529
  H   -0.94651977136587      3.02027761358203     -1.89098333192881
  C   -2.94924710863562      3.88019566674237      0.64737970373427
  H   -2.58670838691545      4.95331978068077     -1.20185674343432
  H   -3.66642321944535      4.49758424115530      1.16785994716313
