19
Coordinates from ORCA-job opt
  C   0.66524217555859      0.81971730047389     -0.69016318566398
  C   -0.52079906742036      0.89500285059992     -0.00578335350612
  C   1.39192196855300     -0.39421121051106     -0.65554582954522
  H   1.03326436145634      1.69103468473458     -1.21357167943012
  N   -0.94609190310235     -0.19508104603737      0.70007094737566
  C   -1.34667504550623      2.09234370823540      0.03009547777636
  C   -0.28704997634569     -1.42732600346833      0.80637437459169
  H   -1.84714528841414     -0.16399673498655      1.16744095896089
  C   0.95014994719067     -1.47041990276985      0.06223522886503
  O   -0.77891960181972     -2.33448079933514      1.47123780332595
  H   1.50296971487754     -2.40034122591789      0.09749740777318
  H   2.32789319152474     -0.46492975779335     -1.19969859357690
  C   -1.61703929578714      2.96760506936813     -1.01012256638428
  S   -2.13857750161583      2.59563250937466      1.46918618734348
  C   -2.45770875605201      4.02877939591440     -0.62208796456540
  H   -1.23559313730039      2.81470728522453     -2.01180709743203
  C   -2.82920590793971      3.95295699554825      0.70415487195357
  H   -2.79374724505408      4.81482316103238     -1.28545474352502
  H   -3.46359063280322      4.62538572031338      1.26274175566327
