19
Coordinates from ORCA-job opt
  C   -0.29291074961575      0.12206637879129     -1.35615640257746
  C   -0.63638307117130      0.81739787722036     -0.22434552208065
  C   0.51777736591215     -1.02997121364360     -1.22334143968011
  H   -0.61784844363929      0.47907616600566     -2.32379262732745
  N   -0.17424597515476      0.37829950622900      0.98372531640479
  C   -1.44541247094798      2.02539182085852     -0.21188388111467
  C   0.64664964768319     -0.73413601554172      1.20910532356226
  H   -0.47249308871889      0.85572758665154      1.82817803683072
  C   0.97877686477140     -1.44328532855332     -0.00447317963233
  O   0.99516929930137     -1.02226703035842      2.35051640364840
  H   1.60131308158040     -2.32212956782865      0.10351127086821
  H   0.78913677421936     -1.58903533675113     -2.11266414177835
  C   -1.33333198008266      3.12336924250128      0.62990647574988
  S   -2.72428108006594      2.24430180036259     -1.33090937724345
  C   -2.28068498812298      4.12515758840258      0.34221546458222
  H   -0.56810258023371      3.20819078946803      1.39219523492095
  C   -3.10489164116511      3.78549534269817     -0.71031690004404
  H   -2.35524985735836      5.06445708774666      0.87413617220006
  H   -3.91368610719112      4.35909230574114     -1.13880622728900
