19
Coordinates from ORCA-job opt
  C   -0.22947564672459      0.18379623227127     -1.34132765673630
  C   -0.67534933029795      0.78974952488652     -0.19560646002835
  C   0.60368837670080     -0.95492022128563     -1.22304171389388
  H   -0.50371488990491      0.59434479407391     -2.30316941145227
  N   -0.28091906944458      0.29146848301137      1.01375912449189
  C   -1.49125348512792      1.99776365585117     -0.16498867085512
  C   0.55381680969496     -0.81294279222916      1.22780386828169
  H   -0.63730593349430      0.72367078157632      1.86053447254327
  C   0.98775987360484     -1.43458495051148     -0.00196184034856
  O   0.83604088838336     -1.16301378118781      2.37028475456716
  H   1.62796699436356     -2.30196990812185      0.09531934317097
  H   0.95555962432675     -1.44754806171443     -2.12334012393359
  C   -1.23188484463794      3.18469541501890      0.50430105329508
  S   -2.91972908562645      2.12257529307948     -1.10043774529960
  C   -2.20458992787696      4.17148498588934      0.24979308117494
  H   -0.35636135261164      3.32654930192255      1.12637711168824
  C   -3.18774663446654      3.73346873800791     -0.61378343732998
  H   -2.18623328153031      5.16852613801194      0.66975605926332
  H   -4.05097008533019      4.27408637144969     -0.97346980859891
