19
Coordinates from ORCA-job opt
  C   0.20075717177352      0.47957458289279     -1.18388367630286
  C   -0.58511329627510      0.84663197326204     -0.12350761187829
  C   0.97666578635133     -0.70043253818747     -1.07527958267935
  H   0.20043206261612      1.08636426991815     -2.07855736859390
  N   -0.61951521493851      0.04757639937548      0.98451097436885
  C   -1.44128813057327      2.02886660332158     -0.12674129477593
  C   0.09832024780616     -1.14033236635458      1.17558764713254
  H   -1.18155469015821      0.33311806499302      1.78059425104678
  C   0.92946035657860     -1.48279281377616      0.04437621190310
  O   -0.01124956965420     -1.76771362977219      2.22519887541304
  H   1.51473151774003     -2.38903068084839      0.13334002372477
  H   1.61026015908055     -0.99530751186661     -1.90511311888580
  C   -1.06033613559633      3.35069448678333     -0.28803584219705
  S   -3.12778211922869      1.91272824431148      0.17421342946770
  C   -2.14491976562300      4.24484989141097     -0.18455047048267
  H   -0.03074834773414      3.63855401564156     -0.45967790542916
  C   -3.33738489561319      3.60093219368902      0.07152248374620
  H   -2.06189475879093      5.31932057267437     -0.28106835370458
  H   -4.31954137776073      4.03359724253161      0.19386932812660
