19
Coordinates from ORCA-job opt
  C   0.93711070390171      0.98109790887517     -0.12442768541416
  C   -0.41650210668833      0.96501413028734      0.08757609063514
  C   1.63027753936359     -0.25338397183842     -0.15905514924963
  H   1.44168184334176      1.92526310850614     -0.27532812981651
  N   -1.05087132486538     -0.23663696553519      0.22996669699939
  C   -1.26544464103260      2.15230818308126      0.08897226842379
  C   -0.45421114548283     -1.50341163137599      0.19163241655174
  H   -2.05000011000953     -0.24339144950072      0.41054399885127
  C   0.97453071463472     -1.44399550514880     -0.01452550912885
  O   -1.13685365332774     -2.51403201720358      0.33390825655607
  H   1.49741986816942     -2.39130657294851     -0.04438021955775
  H   2.70350420108991     -0.25217718506213     -0.31775763008552
  C   -2.34266220153475      2.42997501875176     -0.73910545437440
  S   -0.93056966700879      3.47612822325250      1.12169328843589
  C   -2.88357845520634      3.71060053886588     -0.51005638270312
  H   -2.69706946138892      1.73396739362787     -1.48976647451048
  C   -2.21049595341198      4.39888548240201      0.47868707943362
  H   -3.72494933499175      4.12286186868638     -1.05126258253869
  H   -2.41201681555216      5.38943444227703      0.85948212149220
