19
Coordinates from ORCA-job opt
  C   0.44372719023965      0.67298271196694     -0.94032333610860
  C   -0.57360827372299      0.86259069306207     -0.03725889103487
  C   1.19718314553607     -0.52107778651210     -0.88108737012911
  H   0.64400191155282      1.42194662599700     -1.69244509312913
  N   -0.80711699364326     -0.11603393559371      0.88784479744112
  C   -1.39664142865196      2.06164075158016      0.00176961693101
  C   -0.11992038136230     -1.33084183264692      1.01817879156572
  H   -1.53236783882172      0.00561724912376      1.58784800112238
  C   0.93661690030305     -1.48900489528367      0.04849662504733
  O   -0.43974245688056     -2.12399916571831      1.89899223942045
  H   1.50986830252572     -2.40563631802047      0.09865333767543
  H   2.00005174756920     -0.67118479654935     -1.59525975011663
  C   -1.25890198326464      3.21939906421644     -0.75361896735778
  S   -2.77923081721755      2.17652713086539      1.01624509997465
  C   -2.25890026798037      4.17049046857537     -0.48606361226547
  H   -0.45227791437997      3.37229040295828     -1.45837885351383
  C   -3.16181251358774      3.74145061684045      0.46458877489845
  H   -2.32152518268303      5.13874552007135     -0.96506470785158
  H   -4.02010714553042      4.26129749506730      0.86368529743046
