19
Coordinates from ORCA-job opt
  C   -0.33922598585160      0.08317086016191     -1.35433144573348
  C   -0.60084982471991      0.84136292068093     -0.24015855513365
  C   0.45127581360655     -1.08109505607133     -1.21472648088635
  H   -0.71039418316927      0.39880762798510     -2.31990443766490
  N   -0.08612193257605      0.43856600310684      0.95917806393053
  C   -1.40270542332447      2.05330486221351     -0.23716564167514
  C   0.71744640709739     -0.68511839936214      1.19019806088877
  H   -0.32423797437340      0.95319492501351      1.80004304879427
  C   0.96878562937510     -1.45423305105052     -0.00560320088486
  O   1.11661404648601     -0.93315769675980      2.32449934458483
  H   1.57509451773956     -2.34358954622910      0.10796654454119
  H   0.65797372263385     -1.68520892473869     -2.09186406094006
  C   -1.42088760289801      3.07308393577829      0.70539671511310
  S   -2.55082120263156      2.35572565352081     -1.47503773276358
  C   -2.34783975375089      4.08645174664677      0.39405970296615
  H   -0.75866217977921      3.10728174912937      1.56209152059928
  C   -3.03430331725599      3.83219531039115     -0.77418478751127
  H   -2.50546491792946      4.97286968206871      0.99412809783687
  H   -3.79637683867864      4.43358539751467     -1.24778475606170
