19
Coordinates from ORCA-job opt
  C   0.19843313441419      0.54568927067218      1.03778902405566
  C   -0.56082939114085      0.87047623713716     -0.06001205314988
  C   0.96021434019724     -0.64419285394007      1.01544494442356
  H   0.20683787289025      1.19587568521518      1.90022752925356
  N   -0.54360033965663      0.02090263931500     -1.13074354573251
  C   -1.38011695914229      2.07031274915735     -0.14031467497243
  C   0.17761244334719     -1.17581947899114     -1.24312336909588
  H   -1.09275071087966      0.23002192330868     -1.95865350666171
  C   0.95966812585579     -1.47687894602818     -0.06874097151320
  O   0.09869607878856     -1.84364198916234     -2.27012011260727
  H   1.54095777591816     -2.38955333514354     -0.09198560787761
  H   1.55961198858506     -0.89994375698472      1.88296527108373
  C   -1.54405525511601      3.06118880749714      0.81974949924506
  S   -2.31432935272144      2.43754515693492     -1.53517035582058
  C   -2.41558753109996      4.08465519009885      0.40835196760505
  H   -1.04959675542562      3.03996895279205      1.78190050695936
  C   -2.91744775349311      3.87966674511979     -0.86014304677420
  H   -2.67287648233060      4.94435105286720      1.01310426477744
  H   -3.60153922899028      4.49657595013450     -1.42372676319814
