19
Coordinates from ORCA-job opt
  C   0.27970044583483      0.55820850472619     -1.09853494467195
  C   -0.58873831714034      0.84892860446607     -0.07773476660260
  C   1.05276049440851     -0.62426332100680     -1.01472780128695
  H   0.33443120181127      1.21702107667260     -1.95384849506284
  N   -0.69116081754397     -0.02214749708012      0.97017863789394
  C   -1.43328878929941      2.03360593774689     -0.06169785934570
  C   0.01745696255177     -1.22076392438533      1.12905707742845
  H   -1.29408035540970      0.21115540200618      1.75334916252051
  C   0.92954854415767     -1.48438675596612      0.04054633078713
  O   -0.16242842068716     -1.91629704189977      2.12443895816575
  H   1.51370159305501     -2.39305561616951      0.10905033628186
  H   1.74737083536581     -0.85869922328042     -1.81454132618680
  C   -1.10047124433229      3.31789526700748     -0.46302958980120
  S   -3.05697284397124      1.97284981928967      0.49629008383696
  C   -2.16578107757582      4.22673728583898     -0.31300239381623
  H   -0.11226779212882      3.57645308467117     -0.82198980898171
  C   -3.29790613249753      3.63512130546806      0.20753801936503
  H   -2.11011622060736      5.27840075367753     -0.56149267135864
  H   -4.25245806599124      4.09043633821725      0.42695205083498
