19
Coordinates from ORCA-job opt
  C   0.97106516569195      0.98583585777313     -0.03098506568195
  C   -0.39839452567702      0.97909306067371      0.04744944054689
  C   1.65398506194950     -0.25358094129670     -0.04532114586945
  H   1.49804892379827      1.92682664449370     -0.10878665269265
  N   -1.05066553561177     -0.22024721923666      0.09294428158778
  C   -1.23108234669642      2.17182713373358      0.04207505213132
  C   -0.46260460241067     -1.49127770592276      0.06236668903344
  H   -2.05972627228029     -0.22696226682502      0.20272845785164
  C   0.97919621893047     -1.44196454290529     -0.00893238304057
  O   -1.16462379801173     -2.49741550846630      0.10847498765657
  H   1.49552377204225     -2.39318979642708     -0.02276755295750
  H   2.73751624634516     -0.25815010568947     -0.10036809749151
  C   -2.44550697615306      2.36457009062730     -0.60138898228552
  S   -0.74750207944825      3.59116270708828      0.87011642920498
  C   -2.95633120060007      3.66385161446761     -0.41429846587407
  H   -2.91677203939740      1.60312591860473     -1.21127792341528
  C   -2.13139321986650      4.44828655790828      0.36488442118152
  H   -3.88527178554887      4.02080210928712     -0.83911803062966
  H   -2.27616100705555      5.47460639211185      0.66900354074402
