19
Coordinates from ORCA-job opt
  C   0.41340063238759      0.65471824512437     -0.96861715015215
  C   -0.57945060763589      0.85868140611122     -0.04210061157424
  C   1.17026645976100     -0.53744531323079     -0.90751902575046
  H   0.58377298629709      1.38629497490353     -1.74504493273481
  N   -0.78681802047390     -0.10201239714607      0.90783390561084
  C   -1.39853394352943      2.05977190334594      0.00229044971579
  C   -0.09728305966261     -1.31527632183726      1.03920926569357
  H   -1.48172116037683      0.04241807246500      1.63392014893614
  C   0.93314654792498     -1.48981359345706      0.04411608728155
  O   -0.39128578362337     -2.09292949929316      1.94246594996126
  H   1.50842699385681     -2.40512725295632      0.09552212958914
  H   1.95431530597920     -0.69993129692928     -1.63968462785090
  C   -1.22130082432288      3.24241569252035     -0.70389632169979
  S   -2.84254808490064      2.13269451440086      0.93190558077565
  C   -2.23921912898289      4.18189041857880     -0.46232035591153
  H   -0.36985196787344      3.42270759634211     -1.34697006323646
  C   -3.19473765931545      3.71761298629090      0.41774500961953
  H   -2.27572240447141      5.16757590818282     -0.90730020697721
  H   -4.07555528103792      4.22295295658405      0.78524676870408
