19
Coordinates from ORCA-job opt
  C   0.55094166050905      0.74737838505370      0.84552513946163
  C   -0.47672214597309      0.91954991405949     -0.04385077257569
  C   1.26474019371458     -0.47588965481187      0.82707004206172
  H   0.80156469367619      1.54831239564754      1.52694276575687
  N   -0.75489928444778     -0.07664532496265     -0.93693463831279
  C   -1.26950941759975      2.14204188980540     -0.13174963732956
  C   -0.09642880242811     -1.30904687763284     -1.03960326410977
  H   -1.53324405695630      0.04012093574788     -1.57858558149512
  C   0.96674904031311     -1.46035075979859     -0.07292229011401
  O   -0.44714760321713     -2.12984757749110     -1.88255873797058
  H   1.51087916245270     -2.39578440108647     -0.09761850853863
  H   2.07405527785135     -0.62696010130388      1.53361412527212
  C   -2.04384382641715      2.72306897452211      0.85879071089710
  S   -1.40778781822346      3.01448252688309     -1.60418200182227
  C   -2.72020738338631      3.87639336392564      0.41278364854955
  H   -2.11480116885868      2.30658015659261      1.85572511244507
  C   -2.47073606774995      4.15443280488826     -0.91485733871849
  H   -3.37443869145036      4.47773090529352      1.03009375138771
  H   -2.84986276180891      4.97163244466817     -1.51088252484485
