19
Coordinates from ORCA-job opt
  C   0.72199347909896      0.84559354201933      0.68474330966550
  C   -0.42164652950295      0.95265849856499     -0.05892229225257
  C   1.41986346490513     -0.38793284981050      0.67987360616999
  H   1.06478842140270      1.69794073700654      1.25435951314021
  N   -0.84902378979604     -0.12711377076904     -0.77983173374015
  C   -1.24471742651076      2.16441149790059     -0.13023187848411
  C   -0.22922921812887     -1.38129983934817     -0.84680921334988
  H   -1.70053953735040     -0.04344100138542     -1.32642974174331
  C   0.97328022244471     -1.45448769300644     -0.04828892780286
  O   -0.71456889385667     -2.27826520589854     -1.53033236017555
  H   1.50090541007642     -2.39968958255132     -0.05727738127815
  H   2.32721587446312     -0.48566252217966      1.26647797198599
  C   -2.30946950680889      2.51975675943574      0.68051359402540
  S   -0.96703500000907      3.35690163622888     -1.32964569911606
  C   -2.87997368199274      3.75635776288211      0.31577487666146
  H   -2.64489247504742      1.89886160369677      1.50185760743924
  C   -2.24806585140449      4.32887672210166     -0.76878520226203
  H   -3.71758854938161      4.21596722858663      0.82358328475000
  H   -2.47199741260113      5.26776747652583     -1.25383233363313
