19
Coordinates from ORCA-job opt
  C   0.36273199216853      0.62320648338232     -1.01514096173571
  C   -0.58616962975352      0.85363738383897     -0.05043312901585
  C   1.12612922703804     -0.56525162926226     -0.94909979407438
  H   0.48594918345091      1.32835992901943     -1.82465917051189
  N   -0.75301556565527     -0.07687549315981      0.93673418718813
  C   -1.40961889742988      2.05109493526628     -0.00908025280010
  C   -0.05723943469217     -1.28590305616108      1.07333159150311
  H   -1.40616865614621      0.10259447728458      1.69328627363793
  C   0.92988417190409     -1.48865647519014      0.03964478162470
  O   -0.30821078318931     -2.03674719865310      2.01148111965758
  H   1.50898080761398     -2.40141234286871      0.09437781275302
  H   1.87799322326940     -0.75054494921577     -1.70908230335945
  C   -1.16760983187900      3.27425499080601     -0.61847895602401
  S   -2.93526163485760      2.06666552547090      0.78253584256350
  C   -2.20770346820326      4.19967180876804     -0.41605956039016
  H   -0.25407432853261      3.48977241111666     -1.15753515525355
  C   -3.23992245247012      3.68310824764486      0.33945941348314
  H   -2.20447542141166      5.21248297193753     -0.79701035548476
  H   -4.15289950122433      4.16774197997526      0.65252961623875
