19
Coordinates from ORCA-job opt
  C   0.71118177632513      0.83920624368056     -0.64371156240178
  C   -0.50235141332341      0.90523446902207     -0.00983158143573
  C   1.42748905442552     -0.38156726008653     -0.60979692775444
  H   1.10241240500702      1.72002874543806     -1.13339801847283
  N   -0.96275444931233     -0.19608570316315      0.65532872256486
  C   -1.31856498606718      2.11137898433761      0.03278333399061
  C   -0.31814330296685     -1.43613854308674      0.75717209950522
  H   -1.87843702675141     -0.16262929057768      1.09310846382817
  C   0.94788597954779     -1.47094514838659      0.06216735815525
  O   -0.84166452787882     -2.35520301895983      1.38028419818455
  H   1.49209699712765     -2.40596084792877      0.09752008665951
  H   2.38484365076755     -0.44697011986458     -1.11605121975675
  C   -1.68948087728634      2.92133564896453     -1.02827984009882
  S   -2.00305568600823      2.68013252315394      1.50179482470204
  C   -2.51070741367103      3.99485702477115     -0.63037370455107
  H   -1.38537333519038      2.71639809875606     -2.04704921873009
  C   -2.77105367243995      3.98787529541587      0.72406199473453
  H   -2.91055002977085      4.74030773896626     -1.30506718883592
  H   -3.36447214253385      4.68594415954773      1.29613917971268
