19
Coordinates from ORCA-job opt
  C   0.05520020054548      0.36676689763570     -1.27639190134000
  C   -0.60566797461816      0.82897328030884     -0.17090721448828
  C   0.84161682094711     -0.80604247591680     -1.15430962607860
  H   -0.03831943696597      0.90143084459730     -2.21117319674541
  N   -0.49540704026853      0.14111090122618      1.00505143667189
  C   -1.44819740990419      2.02886009504725     -0.16149022633640
  C   0.25170681843620     -1.02367510901883      1.22086409497919
  H   -0.98252268113899      0.49166059958229      1.82403315530419
  C   0.93906205881931     -1.47603132097799      0.03261420959703
  O   0.27594025580608     -1.54945826738208      2.33009021561459
  H   1.53603132674340     -2.37339748766895      0.13374451735538
  H   1.37334283393421     -1.18014020269113     -2.02277861579962
  C   -1.05400453747533      3.34425563151859      0.01558373709071
  S   -3.15084021631378      1.92043994376741     -0.33236303665750
  C   -2.13996599166198      4.24332220707907     -0.00057328012505
  H   -0.01661855336735      3.62496186820314      0.14806165285764
  C   -3.34966393012276      3.60521326282863     -0.18071683866694
  H   -2.04718074694672      5.31510145259965      0.11496217869357
  H   -4.33521179644802      4.04384887926173     -0.23750026192640
