19
Coordinates from ORCA-job opt
  C   0.12442621744992      0.41338588847739     -1.24391067553541
  C   -0.58999724359880      0.84014007694619     -0.15702591078452
  C   0.90269735023515     -0.76459831185816     -1.12276690788663
  H   0.07455332724142      0.97805841032864     -2.16432303159735
  N   -0.55035255232523      0.10477113105600      0.99439153085871
  C   -1.44137799079894      2.03131713227541     -0.15825603226615
  C   0.17892001308743     -1.07255421357210      1.20464318326809
  H   -1.07208685032139      0.43041094831480      1.80230467042919
  C   0.93148114326822     -1.48122641199763      0.04038730284830
  O   0.13933845731260     -1.64097656506370      2.29205867638253
  H   1.52024599910263     -2.38419174914041      0.13963710632936
  H   1.47972165497194     -1.10845243893646     -1.97471996908361
  C   -1.04702829440720      3.35788781061970     -0.12028837761657
  S   -3.15191095566225      1.90230328298857     -0.11300568742486
  C   -2.13927891714811      4.24837915780181     -0.07536441057299
  H   -0.00461598131554      3.65082315241137     -0.12267495837648
  C   -3.35296326740755      3.59336635402829     -0.06214890228946
  H   -2.04837002573146      5.32617077424727     -0.04679163900314
  H   -4.34410108395284      4.02218557107300     -0.03534496767899
