19
Coordinates from ORCA-job opt
  C   -0.30706522120924      0.10902224389999     -1.35713159169603
  C   -0.62372815451513      0.82600531901474     -0.23067447686455
  C   0.49614073658452     -1.04758572016007     -1.22129064261542
  H   -0.64546980432998      0.45283680260621     -2.32499989482270
  N   -0.14560770667788      0.39911277795681      0.97550942144677
  C   -1.43050052266195      2.03496867860589     -0.22209662249059
  C   0.66913646287986     -0.71727881894964      1.20338265134828
  H   -0.42627342120844      0.88832029378984      1.81901548412302
  C   0.97503232377549     -1.44705868668635     -0.00469080252142
  O   1.03327101216689     -0.99201469888610      2.34324254082454
  H   1.59158138966195     -2.32979342012653      0.10570786889971
  H   0.74637972164267     -1.62230311593507     -2.10681423243317
  C   -1.36025966707077      3.10804166289136      0.65597195739343
  S   -2.66962571391803      2.27875573470895     -1.38083933080426
  C   -2.30232102109296      4.11264892894000      0.36127320257119
  H   -0.62619540908260      3.17786295688503      1.44975958965935
  C   -3.08341423079323      3.79934010386118     -0.73129360023221
  H   -2.40351881715785      5.03525469555153      0.91742254759670
  H   -3.87826095699335      4.38106226203221     -1.17465406938263
