19
Coordinates from ORCA-job opt
  C   -0.24811392190954      0.16638642602147     -1.34627002788810
  C   -0.66896372703688      0.79455996134954     -0.20256242852077
  C   0.58168422060724     -0.97408272006633     -1.22452873936523
  H   -0.53597126850875      0.56316025464002     -2.30996625062045
  N   -0.25528151395391      0.31327548455181      1.00719504739907
  C   -1.48351828885086      2.00201888930606     -0.17629862346237
  C   0.57889353146699     -0.79110609840718      1.22376742234486
  H   -0.59799320375064      0.75669182202341      1.85374164148799
  C   0.98717947344637     -1.43514714421597     -0.00317092809447
  O   0.87981045316382     -1.12381704668491      2.36657335378277
  H   1.62481874781342     -2.30415713791935      0.09638492215156
  H   0.91378807440068     -1.48363715544454     -2.12293920738565
  C   -1.25746448645500      3.16815848243915      0.54038397730846
  S   -2.87401506442473      2.15139154113460     -1.16415669320906
  C   -2.22169796700653      4.16033581715639      0.27512913617221
  H   -0.40842537735288      3.29506392252436      1.20128201376454
  C   -3.16627755188754      3.74695709835738     -0.64175665698408
  H   -2.22417688626392      5.14427518977920      0.72535426860036
  H   -4.01497524349733      4.29687341345488     -1.02136122748164
