19
Coordinates from ORCA-job opt
  C   0.60174732358866      0.78515102060436     -0.75935052189799
  C   -0.54050678754234      0.88409138711100     -0.00514910482643
  C   1.34082718152628     -0.42005464194372     -0.71891448338078
  H   0.93560800402082      1.63486147644440     -1.33776162627172
  N   -0.91602908180317     -0.18537750403601      0.75852587765409
  C   -1.38415204338291      2.06788583162852      0.01483887953936
  C   -0.24016838442826     -1.40776096274992      0.87444425877248
  H   -1.79020336749458     -0.15163166150830      1.27421574722484
  C   0.95285315684952     -1.47161837899671      0.06369626475035
  O   -0.68707493582286     -2.29136301265364      1.59995022697007
  H   1.51561231223995     -2.39539373095405      0.10178600363867
  H   2.24330796869196     -0.50464970139047     -1.31521113847753
  C   -1.51565443942515      3.03668957949268     -0.96947107481210
  S   -2.33109112859870      2.47425449951888      1.39031948162784
  C   -2.38879093327710      4.07571034197139     -0.59758410883631
  H   -1.02053694841501      2.96548395486344     -1.92946624124231
  C   -2.91749463559060      3.89973040790433      0.66439152753214
  H   -2.63595077046905      4.91916733473256     -1.22877456597958
  H   -3.61300349066745      4.53202475996126      1.19631359801491
