19
Coordinates from ORCA-job opt
  C   0.15295715027251      0.43596445259337     -1.22495334940002
  C   -0.58652727752105      0.84334266263899     -0.14699452583092
  C   0.92963041287868     -0.74312716289719     -1.10673701996696
  H   0.12135009242967      1.01510552056074     -2.13717829712685
  N   -0.57524176373976      0.08576764339802      0.99047286084677
  C   -1.44076399871738      2.03073059076692     -0.15078447757809
  C   0.14874063858433     -1.09588239505417      1.19546851754378
  H   -1.11198442838289      0.39810408499426      1.79382859984064
  C   0.93000456861801     -1.48224780751994      0.04270043884060
  O   0.08282415445532     -1.68460391418824      2.27072993813513
  H   1.51684569387001     -2.38673665143501      0.13932799283377
  H   1.52702387263047     -1.07086166158180     -1.95098452839703
  C   -1.04909637770303      3.35843624633000     -0.18067084817791
  S   -3.14666368933865      1.90134174618490     -0.01162152903719
  C   -2.14035325144676      4.24850451472003     -0.11276881873899
  H   -0.00883277623807      3.65224309187145     -0.24355521069435
  C   -3.34970027957717      3.59313876575272     -0.01233127898281
  H   -2.05136174013769      5.32674887664457     -0.12700263623123
  H   -4.33955300093657      4.02123239622038      0.04985417212167
