19
Coordinates from ORCA-job opt
  C   -0.07226073688492      0.29319778301960     -1.30892995832369
  C   -0.64863361580688      0.80244770019206     -0.17679750508369
  C   0.74037730971973     -0.86194875560671     -1.19364832782649
  H   -0.24584925466441      0.78089248300126     -2.25791723313737
  N   -0.40931478825036      0.19220876923583      1.02240099835696
  C   -1.47624089588017      2.01163743913705     -0.14650605015022
  C   0.38252983306090     -0.94327275619425      1.23557079521173
  H   -0.84122211137703      0.57317390833570      1.85858101616456
  C   0.96356129888650     -1.45703731675380      0.01617913078025
  O   0.52147188482573     -1.39983550671207      2.36685625915442
  H   1.58484907240491     -2.33827518470261      0.11235955036837
  H   1.19905461897673     -1.27749752107090     -2.08464026225544
  C   -1.10220578525131      3.28924930355225      0.23702505550389
  S   -3.10523911256268      1.98524827336851     -0.67477213795012
  C   -2.14971470686093      4.22288369445654      0.10390451530914
  H   -0.10436644858281      3.52119033344039      0.58834023360865
  C   -3.30671485664416      3.65122430603340     -0.38479434810663
  H   -2.06521208142675      5.27386807485956      0.34682174550594
  H   -4.25557062368209      4.12784597240818     -0.58323247713025
