19
Coordinates from ORCA-job opt
  C   0.98554260547051      0.98405688283761      0.04726951323497
  C   -0.38597199735128      0.98747786751607     -0.01288864898836
  C   1.66261553602447     -0.25735687918052      0.06630632670753
  H   1.52696835749569      1.92031623971412      0.04769413017208
  N   -1.04071140573473     -0.21061572105058     -0.05145091429668
  C   -1.20758767160015      2.18598904724101     -0.03026994553568
  C   -0.45699207343015     -1.48381066250634     -0.05361757598617
  H   -2.05462824902552     -0.22358873723032     -0.03144361899213
  C   0.98485882678195     -1.44332862437838      0.01023555865017
  O   -1.16599937449522     -2.48546482635162     -0.09228688107649
  H   1.49693460375563     -2.39677569594873      0.02367577876494
  H   2.74631732139221     -0.26507315957583      0.11708847980290
  C   -2.52138046958416      2.32485848720630     -0.45848390165633
  S   -0.61115738663020      3.67454592587926      0.57835725383157
  C   -3.00897314629072      3.63695140235433     -0.30436982013287
  H   -3.09225292653525      1.52066953587487     -0.90683953849894
  C   -2.07230534426900      4.48628599177550      0.24513743341607
  H   -4.00324641969082      3.95452120415781     -0.58938650356921
  H   -2.17273078628326      5.53754172166543      0.47207187415261
