19
Coordinates from ORCA-job opt
  C   0.24158425896845      0.52059817905856     -1.14099712577065
  C   -0.58661395026164      0.84807797845595     -0.09904280162079
  C   1.01658751106399     -0.66035693625202     -1.04480919270899
  H   0.26869477515102      1.15437111793961     -2.01638229884329
  N   -0.65742308297661      0.01110372541643      0.97881486406885
  C   -1.43923018246099      2.02953221863573     -0.09509189046444
  C   0.05582359669158     -1.18237890711298      1.15345983485198
  H   -1.24050323817311      0.27022957573332      1.76882514026593
  C   0.92959313008006     -1.48334219742304      0.04304413474685
  O   -0.09046817016801     -1.84549683083840      2.17615114388582
  H   1.51448808871709     -2.39075574111485      0.12158287603928
  H   1.68202120053234     -0.92382854101318     -1.86021034634215
  C   -1.07781869461322      3.33616559300939     -0.38067296399186
  S   -3.09756550282562      1.93781439821411      0.34253160038713
  C   -2.15338235461293      4.23719398292220     -0.25221932050629
  H   -0.06575694991422      3.61137470583839     -0.64967572693501
  C   -3.31963682336717      3.61581460278087      0.14282988701291
  H   -2.08159264267792      5.30251087944916     -0.42751309581710
  H   -4.28949996915308      4.05857219630078      0.31617628174182
