19
Coordinates from ORCA-job opt
  C   -0.62771473727892     -0.04356518902692      1.16949613242239
  C   -0.70085649268571      0.77922403548132      0.07478364932774
  C   0.22353647891140     -1.17286998742456      1.11069740467539
  H   -1.19541430484947      0.19693046275556      2.05774524996951
  N   0.06244875335204      0.49081569281429     -1.02079277338082
  C   -1.50096358433212      1.99330568783670      0.00697967659875
  C   0.94563574721421     -0.58742740400943     -1.16119345767045
  H   -0.02520936176311      1.07416863531822     -1.84696122017666
  C   0.98402552600128     -1.43761871636481      0.00598362638542
  O   1.57835558993392     -0.73604048440486     -2.20274699380544
  H   1.63959587737188     -2.29750154761363     -0.04376938356431
  H   0.28280886101207     -1.83422165344178      1.96871339795969
  C   -1.12943211811038      3.23460719460771     -0.48945491198360
  S   -3.09414205600686      2.03790497576753      0.63346642808037
  C   -2.14683724575954      4.19881138957320     -0.34976507224681
  H   -0.14734863397717      3.43287296820124     -0.90179300127327
  C   -3.27842522823315      3.68887825426149      0.25263318669994
  H   -2.05729815208429      5.22992841551550     -0.66538864377102
  H   -4.20346791871607      4.19899527015324      0.47816770575321
