19
Coordinates from ORCA-job opt
  C   -0.32218821872023      0.09624162087402     -1.35661626341377
  C   -0.61155981453506      0.83420461604095     -0.23605200430450
  C   0.47404049296728     -1.06459480139944     -1.21844100230888
  H   -0.67572241674743      0.42641217577955     -2.32389182415173
  N   -0.11620815853668      0.41923154376145      0.96730611624645
  C   -1.41591718013635      2.04450327016349     -0.23066429291543
  C   0.69252302552090     -0.70106356060042      1.19712722983650
  H   -0.37707319028791      0.92070814743048      1.80968596276597
  C   0.97154621634517     -1.45081003002913     -0.00502811263324
  O   1.07326746587541     -0.96259528647406      2.33469256559390
  H   1.58248735055026     -2.33717146576226      0.10729359827505
  H   0.70272011784651     -1.65433536333653     -2.09990000609349
  C   -1.38915508058210      3.09150495898363      0.68101823748265
  S   -2.61199625670455      2.31571796578049     -1.42879565874283
  C   -2.32475363113009      4.09972088153136      0.37859029455315
  H   -0.68908781424363      3.14474250714194      1.50613971808453
  C   -3.06020539464746      3.81465656570615     -0.75243150749568
  H   -2.45367353938992      5.00468736479104      0.95748406074501
  H   -3.83974497344411      4.40544088961728     -1.21071911152368
