19
Coordinates from ORCA-job opt
  C   0.68790730486158      0.82966526357411     -0.66717130861858
  C   -0.51205707576229      0.89983410898361     -0.00764275417582
  C   1.40950396912713     -0.38764329571534     -0.63316981608134
  H   1.06744627144694      1.70610251873234     -1.17361084601318
  N   -0.95472721439391     -0.19598813852189      0.67831708976575
  C   -1.33259322992294      2.10179703712214      0.03219743490656
  C   -0.30268142132285     -1.43207580406114      0.78227478292163
  H   -1.86326307740008     -0.16391819184216      1.13087657892934
  C   0.94893176932903     -1.47067133611028      0.06208986317141
  O   -0.81023937280218     -2.34541634484525      1.42658370676266
  H   1.49757635219358     -2.40308445174876      0.09723425616817
  H   2.35623022641830     -0.45545934669317     -1.15875209961360
  C   -1.65240168004949      2.94490197245359     -1.02002269079646
  S   -2.07191853293562      2.63703653560836      1.48739048574843
  C   -2.48344545990351      4.01223736129293     -0.62696132835672
  H   -1.30906839956003      2.76614129075971     -2.03120907955537
  C   -2.80042058767030      3.97013060692591      0.71477169576070
  H   -2.85086702804005      4.77837781606014     -1.29692279992010
  H   -3.41461281361331      4.65523139802514      1.28052582899651
