19
Coordinates from ORCA-job opt
  C   0.17778810635337      0.45798028645772     -1.20485231859187
  C   -0.58542744764140      0.84524930050362     -0.13565785773096
  C   0.95414769878239     -0.72157403327972     -1.09093827743889
  H   0.16255434095116      1.05069882789443     -2.10874753476450
  N   -0.59824157959416      0.06660041001705      0.98731387753841
  C   -1.44146878196613      2.02944376114249     -0.14007850341679
  C   0.12253251572747     -1.11811563031783      1.18591658203040
  H   -1.14831004380413      0.36556198647873      1.78679284084337
  C   0.92962520636868     -1.48247858039359      0.04402980254452
  O   0.03379058281769     -1.72655031787102      2.24860997502814
  H   1.51537405955609     -2.38796541465834      0.13755889241218
  H   1.57014499821810     -1.03270105562287     -1.92803428838574
  C   -1.05381949386716      3.35547368165511     -0.23659017919629
  S   -3.13900240654008      1.90521013343185      0.08372639673855
  C   -2.14199657828677      4.24724367125679     -0.14882184445453
  H   -0.01790534023587      3.64719308404638     -0.35557394037163
  C   -3.34436944727532      3.59611017633746      0.03145044166026
  H   -2.05500380006373      5.32428089944809     -0.20439887026085
  H   -4.33111058950021      4.02553981347365      0.12509580581623
