19
Coordinates from ORCA-job opt
  C   1.02620164497609      0.98477985400333     -0.16542577595533
  C   1.80007852400384      2.23322033440737     -0.14305699219579
  C   1.47290797448195     -0.09314612600500     -0.93567355552997
  C   -0.11460036004763      0.84605693054685      0.63166020797638
  C   2.15760815800714      2.86030738442589      1.05709930754510
  N   2.22915570510629      2.71328139235129     -1.32412973485376
  N   2.87860040595893      3.97687493600213      1.06245649175189
  H   1.86709928538781      2.44271759688148      2.01686295855248
  C   3.23287534017254      4.41077460281993     -0.15437568221109
  N   2.96129653849827      3.82946636995987     -1.32601058818047
  H   3.81618108929784      5.32294344826435     -0.20915054126851
  C   0.77295132122085     -1.29507387278018     -0.91707643153383
  H   2.36062106879978      0.02650164229686     -1.54647353897450
  C   -0.37106403626104     -1.42817924947017     -0.13099553983083
  H   1.12186034949932     -2.13061676401061     -1.51307270121082
  C   -0.81667455732553     -0.35584547235444      0.63955334333044
  H   -0.91564927248780     -2.36538935954110     -0.12085154236011
  H   -1.71004454637903     -0.45524400109660      1.24537064149185
  H   -0.46630463290962      1.68717035329876      1.22068867345688
