19
Coordinates from ORCA-job opt
  C   1.10500761090985      0.92828891797119      0.01040008671698
  C   1.88995675783720      2.17267876562523      0.07702139957387
  C   1.40463372005776     -0.12652942769671      0.88199474329179
  C   0.03995230992729      0.79073488623450     -0.88875784683344
  C   1.87266845143124      3.14657549224036     -0.93188750236275
  N   2.64322271687446      2.35706924773302      1.17782762306242
  N   2.56660022962277      4.27403919137221     -0.81882957952381
  H   1.31227906473137      3.00943191793116     -1.85038969522411
  C   3.27622755577406      4.37935497930218      0.31169244222699
  N   3.35615897863852      3.47676097384688      1.29230269174168
  H   3.85860134577548      5.28219310335517      0.45608235120835
  C   0.66364980686278     -1.30191427049831      0.83762476205998
  H   2.22181182577677     -0.00987208378594      1.58291276048284
  C   -0.38806126943904     -1.43786631769147     -0.06733273566236
  H   0.90734158077588     -2.11472208151423      1.51225267573805
  C   -0.69982838683808     -0.38706701242554     -0.92711208987833
  H   -0.96498400247742     -2.35506750343954     -0.09876352864460
  H   -1.52477028316386     -0.48026089847909     -1.62408803176605
  H   -0.23736901307705      1.60677111991893     -1.54555052620749
