19
Coordinates from ORCA-job opt
  C   1.02251375198421      0.98328216480011     -0.13281079097474
  C   1.78650262731194      2.24700924514037     -0.12047309412394
  C   1.58272593140884     -0.16628911395427     -0.69381706537785
  C   -0.25564199753781      0.93395759832437      0.42754712671240
  C   2.62871625210986      2.58226150658619      0.94448475775895
  N   1.64360530388114      3.06642872135564     -1.17570274609433
  N   3.31446426160408      3.72224754461481      0.94809376253384
  H   2.74355297334335      1.91835945403760      1.79644366519369
  C   3.11875896998986      4.48381485589479     -0.13588132629362
  N   2.32937531483102      4.21356794046731     -1.17901450253872
  H   3.65295664376219      5.42590616678158     -0.18670993197651
  C   0.86479644696567     -1.35942733791415     -0.69510311327696
  H   2.57289600624169     -0.11995433668307     -1.13497237527728
  C   -0.41060183558401     -1.40829778038552     -0.13567048468776
  H   1.29997527828241     -2.24950539970820     -1.13494655878539
  C   -0.97012201572125     -0.26126407992503      0.42397887575172
  H   -0.96841748641619     -2.33761184608958     -0.13832655646209
  H   -1.96392654251374     -0.29610667727135      0.85551272197847
  H   -0.68903088394326      1.83222137392839      0.85476663594014
