19
Coordinates from ORCA-job opt
  C   1.03060907650227      0.97706738973966     -0.08433160309275
  C   1.76375103747414      2.25504256960027     -0.07406731813166
  C   0.06300309203465      0.71323071246642      0.88841657444328
  C   1.25604760857081      0.05734856256023     -1.11134416245525
  C   2.70508232628494      2.55580331477253      0.91639711502925
  N   1.55658188908418      3.08990109212945     -1.10719025931322
  N   3.38590958161667      3.69818809053108      0.89621263937364
  H   2.90582908854901      1.86021510661734      1.72628653859065
  C   3.09564339161073      4.49196690887629     -0.14267292223222
  N   2.23686119719783      4.23941320064299     -1.13425577479272
  H   3.61612754171542      5.44088953470499     -0.20663737977365
  C   -0.65316566064588     -0.48040380281368      0.85110842167644
  H   -0.13001800127985      1.44483561255220      1.66658244285339
  C   -0.41054757877808     -1.40774783936606     -0.16024619749779
  H   -1.40608163215061     -0.68171437432398      1.60451444836992
  C   0.54338987505759     -1.13763240138181     -1.14033602044966
  H   -0.96795462012551     -2.33694574883617     -0.18819991146245
  H   0.72576841730156     -1.85451295080499     -1.93272253010822
  H   1.98626436998011      0.28565202233323     -1.88011410102697
