19
Coordinates from ORCA-job opt
  C   1.06132495922238      0.95893883398485     -0.11375112548922
  C   1.85399039572820      2.20157994084615     -0.09568735125158
  C   0.36276899944815      0.52313430141573      1.01955488265222
  C   1.02462557510678      0.18053744924315     -1.27815590697906
  C   2.13739153153039      2.92033779980500      1.07494308204376
  N   2.30388045640991      2.64960374930313     -1.28334758408386
  N   2.83092674129676      4.05327166629127      1.04266029269711
  H   1.82036232361383      2.57454829593576      2.05250211648159
  C   3.23207064832613      4.42624587338201     -0.17892204957980
  N   3.01225915653326      3.77685780773323     -1.32447318936599
  H   3.80056838328405      5.34552591383721     -0.26159440842215
  C   -0.36531050954779     -0.66199706751615      0.98518905955625
  H   0.35497661527794      1.11418559746000      1.92732956144274
  C   -0.39792748055965     -1.43084950096062     -0.17592252685203
  H   -0.90739548583544     -0.98392363928298      1.86694769006577
  C   0.29696929330674     -1.00362038606865     -1.30627794838099
  H   -0.96431009283043     -2.35479863251909     -0.20049135708604
  H   0.27623009109717     -1.59784151269292     -2.21272920510333
  H   1.56969839859161      0.51886250980292     -2.15037303234538
