19
Coordinates from ORCA-job opt
  C   1.00303359752806      0.99178496725374     -0.01923503657258
  C   1.75297420761799      2.26049547635262      0.00847017408881
  C   1.66092295737613     -0.24473613816107      0.00283673059940
  C   -0.39570192627373      1.01835170644014     -0.09621664755295
  C   3.14488521532286      2.33881703008950     -0.14566917709819
  N   1.03583794999944      3.38306270218663      0.20650474141570
  N   3.78537443001582      3.50137729635754     -0.08405126968952
  H   3.75189484538850      1.46139134433200     -0.33896452441096
  C   2.99535526606265      4.56241181419303      0.12178174541278
  N   1.66706554885062      4.55495990992750      0.25555953059327
  H   3.46818752318722      5.53599807208501      0.18227640988621
  C   0.93360143566620     -1.43000826340750     -0.04133866589225
  H   2.73989613414707     -0.29732120464912      0.08351724366468
  C   -0.45689162909992     -1.39638490734365     -0.11734673192613
  H   1.45482776993825     -2.38010153726668     -0.01610165305110
  C   -1.11722985835529     -0.16900542783334     -0.14187790075907
  H   -1.02195984515255     -2.32076289203959     -0.15337732507648
  H   -2.19913093631073     -0.13605668316930     -0.20177157261969
  H   -0.89984068590859      1.97632773465253     -0.11759507101195
