19
Coordinates from ORCA-job opt
  C   1.03072023483733      0.97746494895636     -0.08269834930366
  C   1.78684965883082      2.24030191978423     -0.09689917213861
  C   1.63659293640265     -0.20967736212128     -0.50314295732108
  C   -0.31816568321317      0.98123764931625      0.28164482246599
  C   2.90027886898411      2.44135565397771      0.72689293214081
  N   1.30975842551177      3.23323813952351     -0.86780539961917
  N   3.55480173201475      3.59883000022225      0.73071635076172
  H   3.25435264220754      1.65631778777511      1.38912221103536
  C   3.04276235469062      4.52216501187840     -0.09349911646021
  N   1.96135486527093      4.39950711961635     -0.86804629926949
  H   3.54172329012278      5.48370395574964     -0.13731514821640
  C   0.90471162884013     -1.39400495113683     -0.52557170161476
  H   2.67538050610775     -0.20074105300224     -0.81787809398766
  C   -0.43348277000276     -1.39368184119167     -0.13700240756808
  H   1.37500375479931     -2.31315492044272     -0.85576553038845
  C   -1.04319716522302     -0.20627494812374      0.26575562132954
  H   -1.00242906964711     -2.31617437121823     -0.15376132431997
  H   -2.08682800861206     -0.20425851628317      0.55887755114225
  H   -0.78708720192237      1.91444377672007      0.57377601133187
