19
Coordinates from ORCA-job opt
  C   1.10594104272429      0.93250519027909     -0.08970072840862
  C   1.91870093774439      2.15585174872840     -0.05900990515954
  C   0.71260785452879      0.31825844867544      1.10354174777134
  C   0.77426586196498      0.34879679039285     -1.31602511806062
  C   1.56722169565141      3.25845104129289      0.72970685097700
  N   2.98026311335414      2.21020284224788     -0.88327934112466
  N   2.30263960510332      4.36561974015184      0.73335956527932
  H   0.67599025256840      3.24258415890717      1.35063019021749
  C   3.36348201018146      4.32512201261142     -0.08365587751126
  N   3.71902270544359      3.32214880961113     -0.89115867966126
  H   4.00359826349152      5.19952877781045     -0.11484342925944
  C   -0.03286120380122     -0.85681040815029      1.06895907249860
  H   1.00476150755081      0.75141949350262      2.05496597474694
  C   -0.38302581712379     -1.42391494518943     -0.15486229948589
  H   -0.33078972515065     -1.33461911090859      1.99520439122106
  C   0.02164598508516     -0.82055681712531     -1.34519235535299
  H   -0.96520100216144     -2.33793405464171     -0.18120011800578
  H   -0.24469531652109     -1.26585775351797     -2.29695125153280
  H   1.10953222936591      0.81980203532213     -2.23308768914891
