19
Coordinates from ORCA-job opt
  C   1.09931137200275      0.93596807836290     -0.10137348069289
  C   1.88302619282157      2.18135436466094     -0.08850756392155
  C   1.41813728750273     -0.07380782797438     -1.01773352970905
  C   0.01933985839452      0.75459237348988      0.77143401198020
  C   1.91853619491035      3.04985563357169      1.01167735643065
  N   2.58522723099465      2.47008121085966     -1.20037504158956
  N   2.60944163307989      4.18426294457636      0.97607196785083
  H   1.40438911001469      2.81769469429775      1.93847593797882
  C   3.26382965274455      4.40021136031902     -0.17211052521716
  N   3.29618770400866      3.59664943629588     -1.23807488737126
  H   3.84062730332994      5.31421561230665     -0.25605096040657
  C   0.67924634141757     -1.25113752175158     -1.04369622417155
  H   2.24733361470111      0.07885821968401     -1.69759613217424
  C   -0.38840509919778     -1.43162705349960     -0.16539727379341
  H   0.93690319185490     -2.03056439293767     -1.75168600877582
  C   -0.71892363760578     -0.42438141164376      0.73856471285832
  H   -0.96375824459357     -2.35004524396419     -0.18915671996197
  H   -1.55715679610042     -0.55245159784255      1.41380498564495
  H   -0.27019591028036      1.54087012118897      1.45912837504126
