19
Coordinates from ORCA-job opt
  C   1.19312331223099      0.87831737755125     -0.07637150456810
  C   1.97591814215030      2.12403355773149     -0.03644119024236
  C   1.13335690120902      0.06261662064523      1.05655393753898
  C   0.43552343699842      0.55855994564935     -1.20658265168495
  C   1.36385044602044      3.37735457382840     -0.15351423249687
  N   3.29211501024144      2.01943344959853      0.21732617401572
  N   2.07243058607506      4.49959914278007     -0.07474880203683
  H   0.29158419485248      3.46381480753633     -0.30499882833843
  C   3.38121192428052      4.31024219332500      0.13848003611428
  N   4.01011806049317      3.14291259690984      0.29983984009624
  H   4.00889180248213      5.19185063862490      0.20326786399808
  C   0.33988157822730     -1.08048466746048      1.04644460338727
  H   1.71877674594432      0.32475092272896      1.93111413185449
  C   -0.40085925697448     -1.40882684012388     -0.08809935910635
  H   0.29583255486285     -1.71335187316100      1.92543702761238
  C   -0.35011332917884     -0.59094312520864     -1.21525623528782
  H   -1.01608839338830     -2.30124471334176     -0.09386753197289
  H   -0.92348856720408     -0.84648289302743     -2.09899078226489
  H   0.48103485067725      1.19844828541385     -2.08219149661793
