19
Coordinates from ORCA-job opt
  C   1.11314460494297      0.92451208692868      0.00762283565295
  C   1.90494524058394      2.16199911639995      0.06673517703567
  C   1.24940009113945     -0.03448710330625      1.01845960538770
  C   0.23596453241394      0.68356312021098     -1.05669389694831
  C   1.50186884991094      3.35131980812424     -0.55657020288715
  N   3.05461736861482      2.11813487177069      0.76567341417578
  N   2.25342771458146      4.44596278980331     -0.50887784943782
  H   0.55303357997444      3.42622206414302     -1.07809296093257
  C   3.38801685993927      4.30981001718868      0.18964240662695
  N   3.80563474397676      3.21754540923265      0.83453969995957
  H   4.04129161905718      5.17232328477015      0.25652166981445
  C   0.50493017194397     -1.20772137114925      0.97032579375756
  H   1.93870569325292      0.15591206865527      1.83216156386775
  C   -0.37401156136079     -1.44011221904036     -0.08684939061859
  H   0.61013916115304     -1.94302059559199      1.75988864652505
  C   -0.50302003528127     -0.49465523577541     -1.10207981502327
  H   -0.95158024765771     -2.35676241489014     -0.12254373678564
  H   -1.17347928976374     -0.67726443956592     -1.93402952891388
  H   0.15007090257841      1.39731774209171     -1.86843343125619
