19
Coordinates from ORCA-job opt
  C   1.09592377027747      0.93275332070222      0.01063826459478
  C   1.88486886451915      2.17784946991065      0.07442052823632
  C   1.34163696912588     -0.08794434990673      0.93904391388595
  C   0.10256750770894      0.74404716535046     -0.95918331963705
  C   1.71138365652560      3.25312296030563     -0.80982586806546
  N   2.81433147458348      2.25484527418709      1.04608259980738
  N   2.44582943504242      4.35630232384347     -0.71444527885354
  H   0.97538418543223      3.23255331658462     -1.60531061248611
  C   3.34312408274690      4.34476167652280      0.27892731847779
  N   3.55587007343191      3.35629229429256      1.15039674862926
  H   3.96854494814137      5.22176947442974      0.40052700593611
  C   0.60838617254450     -1.26809326214790      0.89457305252886
  H   2.10968918926962      0.06031862786927      1.68737970391668
  C   -0.37845495035410     -1.44924057020820     -0.07296392086987
  H   0.80852784278939     -2.04965786682731      1.61864871575768
  C   -0.62825485009640     -0.43924925876289     -0.99895553072098
  H   -0.94883745206683     -2.37047619342976     -0.10547920142682
  H   -1.39365790643371     -0.57081081135255     -1.75515070200388
  H   -0.11376301318784      1.51145540863682     -1.69192241770710
