19
Coordinates from ORCA-job opt
  C   1.00660739495370      0.98800968194494      0.09691009534138
  C   1.77712822381785      2.23948201295743      0.15026271701779
  C   1.49258502415988     -0.15126410609368      0.74431445445647
  C   -0.15814223471353      0.90952805449727     -0.67221045246811
  C   2.24903310172426      2.86142549123191     -1.01176593267859
  N   2.09927773882786      2.71485958368439      1.36628183439386
  N   2.97782321282165      3.97161655737235     -0.95095561519726
  H   2.03880256505693      2.44649351474416     -1.99350048359441
  C   3.22005629391157      4.40404950029790      0.29346201966367
  N   2.83460092575446      3.82757248444714      1.43517499741950
  H   3.80363639775340      5.31126100085607      0.40196538573461
  C   0.80193304215449     -1.35462966648562      0.64073617030971
  H   2.40137680900047     -0.07961216231822      1.33167467009745
  C   -0.36932205455480     -1.42758502728657     -0.11216305206568
  H   1.17960550140586     -2.23747233560584      1.14376107688287
  C   -0.85081125412913     -0.29456927408949     -0.76525946495297
  H   -0.90653383907540     -2.36594330750890     -0.18879299926139
  H   -1.76339964789014     -0.34903177917900     -1.34770909103156
  H   -0.53115720097937      1.79641077653374     -1.17478733006734
