19
Coordinates from ORCA-job opt
  C   1.10336440764260      0.93150379296517     -0.08893045774635
  C   1.89150805487524      2.17819680581103     -0.07215428827709
  C   1.36502397531018     -0.03765482901001     -1.06668145982335
  C   0.08180751738260      0.70007847172765      0.84141503961314
  C   1.77162156337523      3.15779122576301      0.92472561345859
  N   2.75722646479436      2.35969957657224     -1.08775821875359
  N   2.48736426553893      4.27672957932081      0.88838654598928
  H   1.10245252756802      3.04121912129977      1.76960363321206
  C   3.31668081409944      4.37429570573130     -0.15789162174501
  N   3.48548785535706      3.47397012683278     -1.12893754696205
  H   3.92326800983577      5.26929758748618     -0.23608333882303
  C   0.62645436496880     -1.21476828720773     -1.10237283572129
  H   2.15120498878640      0.14674797142530     -1.78775227558389
  C   -0.38418132839397     -1.44171009725521     -0.16962532230536
  H   0.84054616430995     -1.95781830430989     -1.86213017876864
  C   -0.65473303912839     -0.47959711646924      0.80054231803891
  H   -0.95894762997052     -2.36029197090043     -0.19998274744645
  H   -1.44295300245917     -0.64449188608485      1.52614937562115
  H   -0.16009597389254      1.43740252630212      1.59687776602299
