19
Coordinates from ORCA-job opt
  C   1.10645642090598      0.93004282170126     -0.08923567412245
  C   1.89337863854484      2.17635006043592     -0.07390993895078
  C   1.38640632063779     -0.05253076923759     -1.04799156377435
  C   0.06065300186665      0.71821785631855      0.81836738656889
  C   1.82497562011959      3.11994590030890      0.96157702837945
  N   2.70081094072136      2.39577510764734     -1.12912933804458
  N   2.52731040965052      4.24715633508676      0.92063320980406
  H   1.21356082529475      2.96220476505949      1.84309444957450
  C   3.29476708184841      4.38590231349700     -0.16751990929515
  N   3.41972315675904      3.51627756436304     -1.17272809905319
  H   3.88711712946999      5.28983408701268     -0.25198433958895
  C   0.64499219896464     -1.22790258377638     -1.08312336476739
  H   2.18930746466590      0.11955582848159     -1.75371289963802
  C   -0.38775422920633     -1.43738105489496     -0.17057768041454
  H   0.87376953061793     -1.98312415032060     -1.82641554129554
  C   -0.67908055133472     -0.45949092426708      0.77766393378846
  H   -0.96489615440970     -2.35448033927254     -0.20083126658199
  H   -1.48746060731392     -0.60958859691725      1.48405073327161
  H   -0.20093719780273      1.47383277877387      1.54917287413996
