19
Coordinates from ORCA-job opt
  C   1.10473229394680      0.93192658929333     -0.07412693007898
  C   1.92577805542451      2.15167403959637     -0.03863871206100
  C   0.76052476297196      0.28114952430332      1.11416197946349
  C   0.73092630997415      0.38282363534267     -1.30366799248627
  C   1.50722466371070      3.30283076551656      0.63909817162475
  N   3.05847890913226      2.15136818956525     -0.76341252755159
  N   2.24376349737970      4.40966971094340      0.63745587426904
  H   0.56422741976277      3.32258532053248      1.17819024320403
  C   3.37632961889789      4.31539747976701     -0.07155659211957
  N   3.80199464278719      3.26090286586685     -0.77247156741780
  H   4.02078284538428      5.18671798355089     -0.10107548631506
  C   0.01603769729457     -0.89463913428880      1.07289221110290
  H   1.08443941560588      0.69157117843799      2.06544787563464
  C   -0.37875004394968     -1.42655168602877     -0.15309556400697
  H   -0.24600589074732     -1.40055842535105      1.99506256909974
  C   -0.02058030937038     -0.78743388934022     -1.33947901779136
  H   -0.95948968670886     -2.34129593624657     -0.18455298360589
  H   -0.32004324770886     -1.20638702073165     -2.29335509250858
  H   1.03272604621246      0.87884880927093     -2.21947645845551
