19
Coordinates from ORCA-job opt
  C   0.96672550123046      1.02037776987254     -0.14009109493550
  C   1.72854936689525      2.27776351726293     -0.10348268269999
  C   -0.18885632175383      0.88928687421502      0.63495149873325
  C   1.44263148504387     -0.07110996738864     -0.87256711697922
  C   3.06614644619901      2.31420274996949      0.30804033857802
  N   1.06272487753163      3.41157666097144     -0.38557519828643
  N   3.73486095961370      3.46124451274612      0.37479128680303
  H   3.58917257860953      1.40549107413974      0.59238872001468
  C   3.01438251347294      4.53924957980927      0.03849395573768
  N   1.72699202243059      4.56812837268421     -0.31671330390925
  H   3.51280079767390      5.50160403662442      0.06722257713173
  C   -0.87546964653824     -0.32064835868455      0.65586646370876
  H   -0.54379873765076      1.74085473541324      1.20493161934915
  C   -0.40979680773940     -1.40337151886686     -0.08903413006996
  H   -1.77193628238935     -0.42093623300654      1.25700872328306
  C   0.74699011956461     -1.27696985844822     -0.85581881097282
  H   -0.94841354366892     -2.34390898795994     -0.07270730564490
  H   1.10788481227459     -2.11679918433143     -1.43846193559338
  H   2.34151185920043      0.03456622497776     -1.47184260424793
