19
Coordinates from ORCA-job opt
  C   1.05477852721069      0.96436460137674     -0.12108749638434
  C   1.84172835469198      2.20772136415566     -0.10468159730353
  C   0.31116550210472      0.56490305247413      0.99626886232223
  C   1.06459721756362      0.15498462204916     -1.26385810639928
  C   2.23958986018444      2.84503933450290      1.07917284132423
  N   2.17715075835065      2.73067394326860     -1.29919309751967
  N   2.92205085383296      3.98488584974992      1.05591426220731
  H   2.02697309247756      2.42086442366590      2.05485010044906
  C   3.19987671887521      4.44123454200237     -0.17195403985279
  N   2.87792844747282      3.86369265365673     -1.33205909227023
  H   3.75226776689633      5.37086046311376     -0.24810472888469
  C   -0.41434389704527     -0.62206069575438      0.96837438253449
  H   0.26468897790167      1.19224740446937      1.87900949972976
  C   -0.39787699535494     -1.42542067959202     -0.16976711236986
  H   -0.99514847508776     -0.91718170713680      1.83472193370008
  C   0.34080002445308     -1.03182084513476     -1.28474714563666
  H   -0.96180077725924     -2.35099940716964     -0.18920646773932
  H   0.35632222860509     -1.65399095598433     -2.17233315401079
  H   1.64234981412639      0.47060103628667     -2.12391984389600
