19
Coordinates from ORCA-job opt
  C   0.96808480541618      1.01938465554028     -0.12946111729899
  C   1.72692729102174      2.27742244336559     -0.09124642946995
  C   -0.20599312458027      0.89663559662603      0.61919388620887
  C   1.45776116474364     -0.07875876011682     -0.84321939514781
  C   3.08379174817195      2.30927099606987      0.25297460994287
  N   1.04475225080069      3.41597679411017     -0.30890901327446
  N   3.75136019431000      3.45704665660414      0.31579741802982
  H   3.62367184220412      1.39669422859771      0.48922733125486
  C   3.01148778747382      4.54063437368798      0.04603379443909
  N   1.70730785870726      4.57319274577190     -0.24122345715650
  H   3.50782778090407      5.50403563337184      0.07498114388127
  C   -0.89391255688287     -0.31242509356467      0.63553390653749
  H   -0.57184189621948      1.75400317609852      1.17310438534764
  C   -0.41280433156342     -1.40234944472399     -0.08894052604213
  H   -1.80379042477793     -0.40656622204608      1.21720286500417
  C   0.76067258518771     -1.28368728341195     -0.83126024423490
  H   -0.95263025695855     -2.34226444164784     -0.07622748772978
  H   1.13282770315029     -2.12851505884477     -1.39940047720145
  H   2.36760057889104      0.02086900451208     -1.42676219309010
