19
Coordinates from ORCA-job opt
  C   1.06599426142481      0.95290340268288      0.05242192384544
  C   1.84406295762584      2.19698807457377      0.11854132395548
  C   1.44803513763515     -0.14608587800045      0.82958725248843
  C   -0.04545971368383      0.85183286457934     -0.79197018453859
  C   2.03898297707815      3.02028368493334     -0.99863012781411
  N   2.40783381333150      2.50538538190952      1.30095971180716
  N   2.73941957148503      4.14614445583668     -0.91204909575913
  H   1.64234625551860      2.75299647463819     -1.97341118117856
  C   3.24181242790665      4.39314057640760      0.30486450218862
  N   3.12606818325425      3.62574006907970      1.39189551306286
  H   3.81737005065028      5.30281993094613      0.43305898682129
  C   0.72742400397351     -1.33305882832425      0.75535479319897
  H   2.30673467644608     -0.05374869716419      1.48414534468742
  C   -0.37896373105663     -1.43147819492358     -0.08768104849265
  H   1.03002565146444     -2.18416349511556      1.35466100228402
  C   -0.76716841935084     -0.33628690604676     -0.85688481984951
  H   -0.93993408241549     -2.35750748033993     -0.14136061247770
  H   -1.63462942314334     -0.40521207883855     -1.50322883856574
  H   -0.36685359814417      1.70990564316612     -1.37287344566371
