19
Coordinates from ORCA-job opt
  C   1.18511897148246      0.88323572026394     -0.06232757421694
  C   1.96881064893784      2.12570563189920     -0.01695505917966
  C   1.17443551513305      0.03116062410731      1.04575870481140
  C   0.38752862506494      0.59211254373887     -1.17329652167872
  C   1.38694387326678      3.37356431144484     -0.27165363149729
  N   3.25278103123164      2.03110892362087      0.37228734467835
  N   2.09885349568679      4.49355377913475     -0.19558613233475
  H   0.33456006738816      3.45966582952516     -0.52691308733802
  C   3.37792911946105      4.31085824060253      0.15788930669553
  N   3.97235510626606      3.15259526355809      0.45711962621565
  H   4.00730702263464      5.19083578550628      0.22756916228616
  C   0.38503645493547     -1.11425280621997      1.03123656868217
  H   1.79287345991980      0.27142539990561      1.90339996827832
  C   -0.39824116568500     -1.41151106952256     -0.08338209738557
  H   0.37698263309412     -1.77372730930861      1.89153152472082
  C   -0.39342103469332     -0.56021793786431     -1.18676219173658
  H   -1.01018763911663     -2.30619003000759     -0.09257626798651
  H   -0.99756230275217     -0.79297910095623     -2.05615982575677
  H   0.40099611774429      1.25365420057182     -2.03378281725758
