19
Coordinates from ORCA-job opt
  C   1.16546192296190      0.89480026959604     -0.03952285609530
  C   1.95235101276916      2.13379647831011      0.01128607866184
  C   1.20341723578453      0.00499052316787      1.03862827477655
  C   0.33929459785301      0.62502940623282     -1.13567586099328
  C   1.41712804994283      3.36988912454261     -0.37327777396322
  N   3.19803754893892      2.05134539210290      0.51273451373884
  N   2.13943241084934      4.48356084520397     -0.30817752841143
  H   0.39117411835174      3.45519387015483     -0.71943628565029
  C   3.37962167699433      4.31042935484526      0.16768079029594
  N   3.92543085470347      3.16745699966621      0.59195394203337
  H   4.01553378887118      5.18581334451552      0.23541639651777
  C   0.42562266086476     -1.14779711213682      1.01353694416003
  H   1.84748683827870      0.22600465897234      1.88208224537428
  C   -0.39151871409017     -1.41903528320736     -0.08336888485120
  H   0.45376964706850     -1.83442263776353      1.85189417755922
  C   -0.43032506244000     -0.53441608196706     -1.15952851960006
  H   -0.99446106225264     -2.31971363170121     -0.10076201035765
  H   -1.05759149391341     -0.74817609561586     -2.01734126359951
  H   0.32323696846385      1.30585257508134     -1.98071937959590
