19
Coordinates from ORCA-job opt
  C   1.08743897445757      0.94192310541636     -0.10300637820716
  C   1.86022263507163      2.19824292769839     -0.09085475279126
  C   0.46319102184620      0.45616491734602      1.05328845171990
  C   0.95572495297656      0.22434705374083     -1.29945085207083
  C   1.94717180322997      3.04437155952506      1.02461418294543
  N   2.51435354766202      2.51626697694566     -1.22436623941761
  N   2.67193223498943      4.15773369807160      0.99677560394213
  H   1.42098450682647      2.83509357430631      1.94900444415844
  C   3.28919067070345      4.39222502856058     -0.16769641795270
  N   3.23657974702703      3.63446007993478     -1.26543640058935
  H   3.89503928372552      5.28793687373003     -0.24341151730193
  C   -0.27014013369069     -0.72558490061059      1.01486270336811
  H   0.55609550407305      0.97920093324914      1.99705343171917
  C   -0.39604214992764     -1.43404541543367     -0.17776040317468
  H   -0.74399921176661     -1.09165863558319      1.91842976899549
  C   0.22097713651053     -0.95525255230043     -1.33228436793715
  H   -0.96873467573414     -2.35398281204045     -0.20617214472629
  H   0.12686474675788     -1.50115381068084     -2.26412364075403
  H   1.43624940526177      0.60431039812440     -2.19206647192569
