19
Coordinates from ORCA-job opt
  C   0.98040949387492      1.01024284556804     -0.08024094322394
  C   1.73021924743147      2.27228761278254     -0.03837703964336
  C   -0.24693243419391      0.91059615409626      0.58332097167887
  C   1.50013851375137     -0.10259333752255     -0.75045322183652
  C   3.12382912285958      2.30815625368004      0.10179805422566
  N   1.01694293398373      3.41231594429373     -0.08400918901370
  N   3.78331969229369      3.46122199162864      0.13967263342351
  H   3.70366430807812      1.39552631176344      0.20310109789657
  C   3.00341443217829      4.54713097014534      0.05615586975696
  N   1.67090638879285      4.57416177971186     -0.03239267583846
  H   3.49081662331545      5.51527666800207      0.07551903009271
  C   -0.94487629480799     -0.29226941782697      0.57380007734622
  H   -0.64005051264529      1.78063755431056      1.09636045347770
  C   -0.42667245645338     -1.39919810931870     -0.09754107095241
  H   -1.89347840978792     -0.36796934224939      1.09295788877998
  C   0.79356321539719     -1.30155504562197     -0.76352324887323
  H   -0.97452781062591     -2.33454948124572     -0.10505131564699
  H   1.19304843376468     -2.15716000292421     -1.29582957737822
  H   2.43936451279306     -0.02165934927304     -1.28787079427135
