19
Coordinates from ORCA-job opt
  C   1.08989307863743      0.93635763393322      0.01781283987534
  C   1.87923407840743      2.18082227236355      0.08060894734377
  C   1.31809947743197     -0.07435534121340      0.96127063151786
  C   0.12646254526539      0.73144162453688     -0.97842460384919
  C   1.65316063640737      3.28520436285608     -0.75424193424283
  N   2.86884699219988      2.22349416477372      0.99313812278888
  N   2.40336177134243      4.37921427873647     -0.67694044330813
  H   0.85439155053581      3.29963553454649     -1.48701355954118
  C   3.36479130552041      4.33131527107280      0.25329639908381
  N   3.62115234026603      3.31864756855093      1.08443720238511
  H   4.00688664714312      5.19853221712666      0.35691588347957
  C   0.58912770169012     -1.25695035789317      0.91203214319723
  H   2.06735860513716      0.08471433706463      1.72634315854321
  C   -0.37269980441474     -1.45176381014142     -0.07783718827331
  H   0.77326748153170     -2.02998535848022      1.64939202243050
  C   -0.59972656690417     -0.45448751425057     -1.02334449182325
  H   -0.93944096863354     -2.37509996609400     -0.11424855622875
  H   -1.34120561661674     -0.59956360890951     -1.80061388299485
  H   -0.05985825494708      1.48342969142084     -1.73518369038380
