19
Coordinates from ORCA-job opt
  C   1.18557403044018      0.88228091135496     -0.07887425719412
  C   1.97179536338289      2.12911582066823     -0.04247489897297
  C   1.07599101753207      0.09892843702249      1.07240881467180
  C   0.48503465100889      0.52576854880969     -1.23381450259071
  C   1.35106619202070      3.38257318273262     -0.01308343529699
  N   3.30835097097072      2.01673769409672      0.04305666856422
  N   2.06447850430066      4.50293834542610      0.05601442580053
  H   0.26881000616227      3.47100459756411     -0.04307699339827
  C   3.38873334660104      4.30886976307932      0.10510804523348
  N   4.03174352746553      3.13809735927323      0.11217632114793
  H   4.02043282858100      5.18853011552202      0.15625817024790
  C   0.28819222999458     -1.04854920907858      1.05846096386561
  H   1.61848012657930      0.38605214932760      1.96681138922586
  C   -0.39759918773213     -1.41263802596266     -0.09918226156028
  H   0.20725796627985     -1.65710063838836      1.95187593348456
  C   -0.29666701696195     -0.62664729523669     -1.24538489661596
  H   -1.00881933028134     -2.30772178537225     -0.10810405393323
  H   -0.82783808718721     -0.90915514687428     -2.14710934215667
  H   0.56808286084295      1.14151417603570     -2.12366609052269
