19
Coordinates from ORCA-job opt
  C   1.03506690050906      0.97128327735081      0.00746773818484
  C   1.79258477829770      2.23140328608712      0.10281096142620
  C   1.62992670305874     -0.23705376546599      0.37918302514464
  C   -0.30392484293136      0.99633148751116     -0.38994563810762
  C   2.86043917956214      2.51516577297313     -0.75552573415621
  N   1.36111994245712      3.14112048031955      0.99360187013991
  N   3.51503995201096      3.67066984664255     -0.68279212320235
  H   3.17954474010777      1.79810712176891     -1.50656612235599
  C   3.04989655143240      4.50709172473543      0.25404254326912
  N   2.01375625011802      4.30419334996017      1.07244011804777
  H   3.55047906904003      5.46257793370183      0.36319064427480
  C   0.89664932614332     -1.41949551023091      0.32271629783423
  H   2.66145004619779     -0.24667651151735      0.71669190372398
  C   -0.43195931719785     -1.39663071867541     -0.09674088138089
  H   1.35872877788348     -2.35547717123978      0.61503515037055
  C   -1.03067936131532     -0.18884960063621     -0.45217813374704
  H   -1.00186095276710     -2.31757577949654     -0.14107296591586
  H   -2.06702206846220     -0.16922839955324     -0.76945580777113
  H   -0.76613367414472      1.94364317576478     -0.64550384577894
