19
Coordinates from ORCA-job opt
  C   1.08941920977602      0.93698273820875      0.02129878538517
  C   1.87985482648743      2.17961280023121      0.08331150646562
  C   1.29584192214211     -0.06226128434104      0.98147513059050
  C   0.15374541970127      0.71950716345253     -0.99827755153797
  C   1.60568589926784      3.30903660968954     -0.70187453828205
  N   2.91927102875144      2.19410149049669      0.93945898538655
  N   2.36371575699068      4.39852043254103     -0.63887776131915
  H   0.75758835189512      3.34764345957260     -1.37643018328548
  C   3.37839478846360      4.32141477544651      0.23106394404575
  N   3.67676389053332      3.28677646993200      1.02024181302174
  H   4.02993680807469      5.18322083780936      0.31988666393277
  C   0.56701106451147     -1.24484140083228      0.92916866947983
  H   2.02695236499723      0.10607200207541      1.76214680695769
  C   -0.37018386410326     -1.45108866574046     -0.08192615142071
  H   0.73186358493068     -2.00893275805833      1.68028144663616
  C   -0.57188055215651     -0.46666180112719     -1.04656192530566
  H   -0.93648227299030     -2.37459912270770     -0.12083832782211
  H   -1.29090497342581     -0.62332823170911     -1.84245754393293
  H   -0.00349325384701      1.45942248506048     -1.77368876899572
