20
Coordinates from ORCA-job opt
  O   0.85349395797561      0.95853338867198     -0.80895546788026
  C   -0.31014559909167      0.99391493200438     -0.42527073155937
  N   -1.00747911742500      2.21257614506567     -0.39876069598945
  C   -1.11930001099003     -0.12203213803115      0.01001893117629
  C   -2.28816679565423      2.38548666665559      0.02711317933688
  H   -0.49729418796290      3.01390941314574     -0.75781526834495
  N   -2.77390629377767      3.69854719497802     -0.03010079707247
  C   -3.02934962856145      1.31984837710979      0.44335080307259
  C   -2.18529637089972      4.78837784375743      0.57596705799590
  C   -3.97423602168771      4.07452499754871     -0.58846798668014
  C   -3.01601885256615      5.87266152696192      0.38233012433282
  H   -1.25996761684249      4.68062288754405      1.12033451243300
  C   -4.14033979290936      5.42404077301544     -0.35430315058046
  H   -2.83097654035015      6.87268835932290      0.74197275301527
  H   -4.97472943920124      6.01828803837422     -0.69216781698122
  H   -4.56927430101279      3.35663559365498     -1.13022790856354
  C   -2.41400823379773      0.04226967882507      0.41270627786900
  H   -4.03494159070094      1.47593299150694      0.80607081738508
  H   -2.98436576277813     -0.82266635044895      0.73347223565328
  H   -0.64769780176623     -1.09586031966276     -0.00756786861825
