20
Coordinates from ORCA-job opt
  O   -0.99618982111885      0.19428944617406     -2.38909350934040
  C   -1.28583187674402      0.58644129181323     -1.26446547814006
  N   -1.88442715350179      1.84727533253304     -1.09613295206504
  C   -1.10364615119073     -0.11903895645184     -0.01806033306048
  C   -2.25500131649431      2.40074281734911      0.08921006616009
  H   -2.11004527095259      2.32787629160411     -1.96103440814423
  N   -2.81385431349393      3.68129987713543      0.01602111826217
  C   -2.05909189312680      1.72134715416779      1.25633071824591
  C   -3.75832203818587      4.18133481278993      0.88455488921733
  C   -2.42654422758991      4.67506170887261     -0.85996880900616
  C   -3.98649187354865      5.49807226023441      0.54610477079886
  H   -4.22273950073467      3.53977912175761      1.61571237262454
  C   -3.14322872527136      5.81108675038078     -0.54882835860325
  H   -4.69615336149666      6.15201169334693      1.02804380055559
  H   -3.05614743992044      6.76034765558015     -1.05374471229263
  H   -1.63121558544316      4.51335030242675     -1.57026768266142
  C   -1.48542932504604      0.42794667309419      1.17365891847067
  H   -2.29906556621758      2.18612649772163      2.20095301995389
  H   -1.32945545662992     -0.13251739211064      2.08912578243971
  H   -0.66111910329271     -1.10453233841930     -0.07841821341507
