20
Coordinates from ORCA-job opt
  O   -1.91865489215028     -0.19383891663273      2.27978633123240
  C   -1.78167914688677      0.38464035727977      1.20800437661001
  N   -2.27466781259899      1.68695188800401      1.03519945091095
  C   -1.13431311712264     -0.12811781412762      0.01969267749443
  C   -2.18595952598977      2.42515670465220     -0.10593454969792
  H   -2.73363159521293      2.09560754881312      1.84397570362744
  N   -2.75219087466213      3.71222157553759     -0.04718623295735
  C   -1.57227128302987      1.92018045592691     -1.21192504427412
  C   -4.07255282169107      4.00992871079577     -0.29818535833552
  C   -2.07098086086382      4.86390795071647      0.27569152495282
  C   -4.23243415536159      5.37085223833200     -0.13029921089101
  H   -4.76309639312051      3.22950397518039     -0.57732917168718
  C   -2.97275337150050      5.90825460238029      0.23120371715608
  H   -5.15643639944210      5.91182457552064     -0.26134067684826
  H   -2.74145016475542      6.94201814625895      0.43471255937922
  H   -1.01707071498678      4.82661711445189      0.50279761998312
  C   -1.03801931985683      0.60812573354176     -1.12635550692417
  H   -1.51337940830637      2.52145132149025     -2.10769478797514
  H   -0.54397776681184      0.18219967920561     -1.99272654515609
  H   -0.72847837564977     -1.12918784732731      0.08761312340031
