20
Coordinates from ORCA-job opt
  O   -0.04192676509825      0.60174080403609     -2.02560991210043
  C   -0.79170466219098      0.79814225168763     -1.07601128185442
  N   -1.39478884510950      2.05677199036407     -0.90882986384351
  C   -1.14467641587855     -0.13580953962576     -0.03279828329244
  C   -2.24490732971346      2.40469929742846      0.09374342508516
  H   -1.09704384924783      2.76312833985106     -1.57412293670607
  N   -2.74074242464881      3.71213942365652      0.04611105425934
  C   -2.57601115952324      1.50072428632021      1.06057021737382
  C   -3.02703419047663      4.48897398892002      1.14629394819589
  C   -3.10167248247878      4.39003270834368     -1.10024877488233
  C   -3.56177663585679      5.67686437051274      0.69456765742923
  H   -2.76918972597471      4.14953460760152      2.13641221109157
  C   -3.61440442187877      5.61238733045119     -0.71995523590278
  H   -3.86379641911284      6.50273298245004      1.31926041777499
  H   -3.99213251035333      6.36631539079409     -1.39266818446151
  H   -3.03191798950043      3.92089927182293     -2.06901050339325
  C   -1.98661990309607      0.21389060123146      0.98409248736935
  H   -3.29441545232964      1.76273917649435      1.82308950308531
  H   -2.22941306292388     -0.51729694177852      1.74757897822025
  H   -0.69982475460750     -1.12031134056181     -0.09276192344818
