20
Coordinates from ORCA-job opt
  O   -0.10124438265405      0.56387206657499      2.06440539031987
  C   -0.82319238932023      0.77686936937396      1.09686709354565
  N   -1.41099489274359      2.04288899834979      0.92914268463140
  C   -1.15609742913458     -0.14190733074147      0.03451666706014
  C   -2.22372145003694      2.41462876143484     -0.09550195555904
  H   -1.11842736249263      2.73660842232932      1.60942532484846
  N   -2.71256104198044      3.72452997139630     -0.04211713640442
  C   -2.53670826468359      1.52396937351057     -1.08102946722856
  C   -3.06839716073068      4.47901442931741     -1.13812329254104
  C   -3.04382094140549      4.40953943339418      1.10980476213871
  C   -3.60776548977822      5.66150860512471     -0.67933614302840
  H   -2.84464515496541      4.13580363599545     -2.13502054980070
  C   -3.59824943063891      5.61532052072429      0.73700970146062
  H   -3.95355671153491      6.47207303362289     -1.30135563699822
  H   -3.96205136855776      6.37011734512553      1.41635404386416
  H   -2.92922515121267      3.95692148889750      2.08189011795537
  C   -1.96433381424331      0.22982181345145     -1.00163257693313
  H   -3.23119132964019      1.79836352300264     -1.86077042232940
  H   -2.19378617308839     -0.48967709537079     -1.78022121685520
  H   -0.72402906115799     -1.13196636551362      0.09539361185375
