20
Coordinates from ORCA-job opt
  O   -1.03303158996654      0.18200502962796     -2.39336316829074
  C   -1.30574122989780      0.58044174278504     -1.26670559884724
  N   -1.89644389346965      1.84432300698341     -1.09499437697944
  C   -1.11025297639106     -0.12123923763939     -0.01988080858177
  C   -2.24442632634363      2.40490979778565      0.09393658897575
  H   -2.12999578814874      2.32568414331919     -1.95751970619353
  N   -2.80103295562618      3.68661592320086      0.02367306815026
  C   -2.03649558491396      1.72920944516573      1.26087676200514
  C   -3.77196548254797      4.17365036633392      0.86979707142389
  C   -2.40361741535145      4.68551479936181     -0.84132157462875
  C   -4.00374588365535      5.48978296236060      0.53044219681953
  H   -4.24546141040985      3.52464199487482      1.58856394248313
  C   -3.13784959274454      5.81411124805931     -0.54326003274600
  H   -4.73009864396069      6.13603343616630      0.99765492240232
  H   -3.04753412887973      6.76616060874200     -1.04233273270719
  H   -1.59223617449950      4.53032344040727     -1.53488181458396
  C   -1.47167484380331      0.43196862031070      1.17534328546648
  H   -2.26221088397160      2.19985918543393      2.20625095651634
  H   -1.30601695078593     -0.12623923645973      2.09046990201646
  H   -0.67416924463249     -1.10945627681939     -0.08304888270067
