20
Coordinates from ORCA-job opt
  O   0.07919515291326      0.66831604678771      1.93282104213783
  C   -0.72787040590596      0.83603948579159      1.02558967470819
  N   -1.36564374261847      2.07842909534678      0.87234029649288
  C   -1.11996464466498     -0.12223366476428      0.01772169418248
  C   -2.28926360193485      2.38484592219805     -0.07799547861145
  H   -1.06131735150525      2.80309648276233      1.51525173705144
  N   -2.80114048196816      3.68710705763249     -0.03259169499582
  C   -2.65441558524787      1.46005628121101     -1.01116099967730
  C   -2.94109059636821      4.52006499831693     -1.11957151261550
  C   -3.22507067337713      4.33923499873066      1.10572504039682
  C   -3.46444480506551      5.71379330798382     -0.66783201207799
  H   -2.61580348168841      4.19875912479972     -2.09607713814300
  C   -3.64773946603949      5.59845518054962      0.73239898726324
  H   -3.67545364599299      6.57506541979354     -1.28195619402832
  H   -4.05294018853946      6.34355082277925      1.39893591233648
  H   -3.24659140100178      3.83048514214050      2.05694941420372
  C   -2.03001874270264      0.18837312234466     -0.95227062628199
  H   -3.41791093442888      1.70128759347357     -1.73632645119539
  H   -2.29820210405849     -0.56150520998390     -1.68856176434010
  H   -0.64831429980474     -1.09491920789407      0.06630907319377
