20
Coordinates from ORCA-job opt
  O   0.36946736815411      0.85131095331979     -1.64537272489038
  C   -0.57672763550582      0.93719978697534     -0.87076266488259
  N   -1.27018953718251      2.14877853911232     -0.72946201210568
  C   -1.10009690906900     -0.10765515304909     -0.01783319975978
  C   -2.34401613304915      2.35942949501413      0.08093479923767
  H   -0.92055858014554      2.92317434746935     -1.28632680421037
  N   -2.87531437809693      3.66058045023007      0.06581896868939
  C   -2.82260905365617      1.35846633911925      0.87094821550338
  C   -2.67964385925435      4.60393376443497      1.04942999811368
  C   -3.52527265109735      4.23626894968084     -1.00327130867856
  C   -3.23720210342618      5.78771012034582      0.61027960075360
  H   -2.16068149682436      4.34077930041511      1.95763989245606
  C   -3.77108316644106      5.55603479481241     -0.68132112128882
  H   -3.25398666268718      6.71337378394625      1.16375645217775
  H   -4.29075750721567      6.26507428162112     -1.30645732597027
  H   -3.77477272772398      3.64700970488715     -1.87201054288164
  C   -2.16510428931819      0.10204456071584      0.81086079629892
  H   -3.68178449149515      1.54178535962859      1.49986232793355
  H   -2.52431929082397     -0.71121871013674      1.43183381914154
  H   -0.59934689514154     -1.06578166854254     -0.06884816563747
