20
Coordinates from ORCA-job opt
  O   0.90740782011455      1.02025662499418     -0.60221145768709
  C   -0.28350312968462      1.02244193941640     -0.31197496479235
  N   -0.99470000177894      2.23453323963458     -0.28082807866020
  C   -1.10936498540915     -0.12027590131801      0.00039910242394
  C   -2.31077769894081      2.37621576830301      0.02987507455539
  H   -0.46624482551162      3.04752746005907     -0.58112085759109
  N   -2.80421354908345      3.68541689002180      0.01611396530234
  C   -3.06803822256496      1.28374162676869      0.33691818933304
  C   -2.11982396813631      4.80537529845729      0.44009410814525
  C   -4.05515719045428      4.05297152351012     -0.42663847349342
  C   -2.95129170087223      5.89280022197799      0.27068604233739
  H   -1.14344865178393      4.72177985240383      0.89106738606051
  C   -4.16777941789399      5.41952296825634     -0.28040952337086
  H   -2.70574780793258      6.91112464230104      0.52824202293924
  H   -5.02857067380607      6.00777359881117     -0.55693504059135
  H   -4.72094892097792      3.31919276001259     -0.85136298566632
  C   -2.43552511158483      0.01590057199191      0.29747392218946
  H   -4.09876888712351      1.40744718291530      0.63480619078260
  H   -3.02107149207853     -0.86721420363719      0.52921111893505
  H   -0.62642958449680     -1.08823206488014     -0.02370574115152
