20
Coordinates from ORCA-job opt
  O   -0.13589462255970      0.55431581201335     -2.08767169117096
  C   -0.84181899879233      0.77094997099716     -1.10914596623494
  N   -1.42175824088059      2.03985359344459     -0.93451064265946
  C   -1.16270362370993     -0.14523511128483     -0.04130082722163
  C   -2.21308044361367      2.41910961902923      0.10397512907337
  H   -1.13316187448429      2.72985980235508     -1.61997253097224
  N   -2.69857164344717      3.73063137360078      0.05492787000045
  C   -2.51491880994008      1.53036849906381      1.09501122550568
  C   -3.09141375884437      4.46711172542050      1.15095154116013
  C   -3.01155457650955      4.42680145140589     -1.09589214308602
  C   -3.63156126562876      5.64972063471278      0.69435355060339
  H   -2.88796722524839      4.11576313213927      2.14923735693433
  C   -3.58717884272742      5.62188557686011     -0.72186725325265
  H   -4.00083898241155      6.44843414521756      1.31820221755455
  H   -3.94183843052599      6.38150294069981     -1.40066028696267
  H   -2.87200126955919      3.98941853243715     -2.07151251433891
  C   -1.95182235555922      0.23283573509966      1.00714554620767
  H   -3.19515085019114      1.80715806189866      1.88614542287463
  H   -2.17322406034278     -0.48431129622280      1.79023681472272
  H   -0.73753812502383     -1.13787419888780     -0.10795281873746
