20
Coordinates from ORCA-job opt
  O   -2.30400302382736     -0.39812829531189     -2.07777207231541
  C   -1.98921574678177      0.27338726668903     -1.10178517174609
  N   -2.44005501201526      1.59722450118304     -0.97876264308449
  C   -1.14619212102921     -0.13334618211928      0.00043316525810
  C   -2.18161724375807      2.43015252449560      0.06613680104218
  H   -2.99356346690105      1.94517395831271     -1.75599997119691
  N   -2.74234008412958      3.71268587026677     -0.02745356581707
  C   -1.39059537514181      2.02244179649128      1.09818687053906
  C   -4.09362050924312      3.98574386152467     -0.04227316895502
  C   -2.03490549955542      4.89137515840400      0.03864439194053
  C   -4.24282242192545      5.35696000478897     -0.01100883791187
  H   -4.81424254236000      3.18267544030263     -0.04329415963894
  C   -2.94646118700121      5.92726220826845      0.03745011247825
  H   -5.18478876070163      5.88258977560508     -0.01462186886137
  H   -2.69877044144139      6.97691098131786      0.05614567741946
  H   -0.95654775480356      4.87649755086668      0.04744369375707
  C   -0.86098255041561      0.70772131157430      1.03808671104565
  H   -1.21118090808148      2.68966999591705      1.92881415390833
  H   -0.22496074708583      0.35963543284534      1.84465367530889
  H   -0.74713560380117     -1.13833116142231     -0.04332279317035
