20
Coordinates from ORCA-job opt
  O   0.83639676956272      0.94255467085446     -0.86171673709626
  C   -0.31885328285826      0.98606567865185     -0.45421869099928
  N   -1.01204559316240      2.20677753685153     -0.42472995456287
  C   -1.12201172051207     -0.12305526830179      0.00952980600382
  C   -2.28254257850790      2.38766742322425      0.02805410623909
  H   -0.50643556896054      3.00504312692336     -0.79699505777089
  N   -2.76681296672202      3.70187191805237     -0.03401992991060
  C   -3.01810006449964      1.32852826310493      0.46942531200781
  C   -2.20475574527072      4.78358552612790      0.61036606517135
  C   -3.95100627488734      4.08129763329458     -0.62368642629686
  C   -3.03335274899104      5.86762872890798      0.40638303290537
  H   -1.29462010201540      4.67071595970834      1.17880655245106
  C   -4.13116987570845      5.42617696394589     -0.37337189796474
  H   -2.86439191771855      6.86271199649894      0.78701771832160
  H   -4.95736482079653      6.02206603459969     -0.72804612635056
  H   -4.52688288554283      3.36805651510056     -1.19175898845839
  C   -2.40717158564704      0.04866974382756      0.43885906780389
  H   -4.01666703984287      1.49194438888280      0.84810464034836
  H   -2.97268972160040     -0.81160242919924      0.78002799984394
  H   -0.65352227631869     -1.09840441105599     -0.00833049168584
