20
Coordinates from ORCA-job opt
  O   0.95311211389809      1.04933848706747      0.34573903484559
  C   -0.26070550199018      1.02997587939067      0.17377719584405
  N   -0.97433048055355      2.24211532665239      0.13027319223852
  C   -1.10556113213101     -0.12722766650209      0.01519954377788
  C   -2.31772290164304      2.37461126092886     -0.02536367720066
  H   -0.40860274759494      3.05697237628956      0.33873428013501
  N   -2.81248179408293      3.68423560774708     -0.07688196371746
  C   -3.09457660099352      1.26287405086385     -0.18855385678414
  C   -2.06616783866472      4.83312655280430     -0.24902233883874
  C   -4.11543950727501      4.03610174513321      0.21060420725563
  C   -2.90999276591579      5.91315837361191     -0.10817061626959
  H   -1.03412613932722      4.79862505553696     -0.55850773435209
  C   -4.20104317966299      5.40999849378538      0.18884006275498
  H   -2.62150573971405      6.94630387879472     -0.22139839166653
  H   -5.09600189150586      5.98157563749353      0.37786485463000
  H   -4.84868163037234      3.28688109304837      0.45702265892679
  C   -2.45568616251762     -0.00019376343513     -0.14683387825337
  H   -4.15172811454113      1.35554987146060     -0.38372061504936
  H   -3.06201965777685     -0.89186718080879     -0.26448696061207
  H   -0.62073932763531     -1.09385307986286      0.04458600233555
