20
Coordinates from ORCA-job opt
  O   -1.33483950831022      0.09944339172048     -2.40839614521196
  C   -1.46894715481918      0.54043416001127     -1.27255464144844
  N   -1.99978086603572      1.82504509879997     -1.07227127440187
  C   -1.15372992440581     -0.13328918845613     -0.03294451573964
  C   -2.17406348540620      2.43259878915969      0.13271411030068
  H   -2.29244257150735      2.31244947207334     -1.91392889503255
  N   -2.72086208027177      3.72249933003529      0.09200740336873
  C   -1.85882362148154      1.78235038092566      1.28834888234706
  C   -3.87247286663053      4.11319316506238      0.73736749593237
  C   -2.24594687847711      4.76384219890669     -0.67556037395471
  C   -4.12244800014101      5.42484405921239      0.38984308494696
  H   -4.41271804758101      3.41279205805956      1.35422578441453
  C   -3.09675993679556      5.83569891486575     -0.49706578916221
  H   -4.95952974958591      6.01271855273644      0.73207537942988
  H   -2.97892125356215      6.80808051104334     -0.94894137444169
  H   -1.32578939355401      4.66171128982512     -1.22982414971832
  C   -1.35074583348381      0.46253001298762      1.18019812984962
  H   -1.97691805321392      2.28820141106905      2.23568044839560
  H   -1.09827067075175     -0.07903862230548      2.08529845337973
  H   -0.75999110398543     -1.13780398573246     -0.11657201325377
