20
Coordinates from ORCA-job opt
  O   -2.08367338306037     -0.29672723347539     -2.20070117960397
  C   -1.87115866809281      0.32846331668319     -1.16787914888831
  N   -2.35058228047519      1.63886564139953     -1.02008228886676
  C   -1.13427736488016     -0.12900066157845     -0.01003777744546
  C   -2.19320229542836      2.42297350035452      0.08188023423565
  H   -2.85253157932563      2.01638672246998     -1.81835336280451
  N   -2.75844614994863      3.70793005185839      0.00168045642252
  C   -1.49784156762707      1.96911496491794      1.16165191853209
  C   -4.09707474566302      3.99527786705325      0.15182334246661
  C   -2.04707522118798      4.87817162407607     -0.13515527447550
  C   -4.23908662951997      5.36684289682864      0.08914084211760
  H   -4.81224200077190      3.20139798437307      0.30122388165518
  C   -2.94864522944585      5.92254749589190     -0.09253831201399
  H   -5.17158857289072      5.90252209983547      0.17319220376771
  H   -2.69878130536290      6.96754132034930     -0.18772071421403
  H   -0.97629216364001      4.85062891660367     -0.26208392356085
  C   -0.95770778261243      0.65857927483195      1.09172132994046
  H   -1.38953104421880      2.60361372414908      2.02949117362208
  H   -0.39830570066876      0.27301187711840      1.93699810419258
  H   -0.72595531517943     -1.12983938374056     -0.06455350507907
