20
Coordinates from ORCA-job opt
  O   0.86775195790358      0.97414386144821     -0.76070237202146
  C   -0.30304943572335      1.00140025590210     -0.39906324557070
  N   -1.00433473750206      2.21816023362803     -0.37361570041092
  C   -1.11668080084968     -0.12118236413452      0.00924673858218
  C   -2.29397961170472      2.38309304704633      0.02711363523792
  H   -0.49042016901466      3.02263366050606     -0.71989538350514
  N   -2.78166454471581      3.69512462681705     -0.02286818454669
  C   -3.03930447143538      1.31097644640230      0.41950095218683
  C   -2.16862189046074      4.79221436900441      0.54477380027706
  C   -3.99507005878661      4.06884502143527     -0.55389063975963
  C   -2.99967903561718      5.87743550969096      0.35808868475212
  H   -1.23048738707660      4.68899253742456      1.06762569841942
  C   -4.14725907375493      5.42289241507356     -0.33772180435253
  H   -2.79956946950447      6.88204719899458      0.69630065729364
  H   -4.98796657980164      6.01619803643989     -0.66134135038361
  H   -4.60760074456034      3.34678829655510     -1.06988284197135
  C   -2.41950373550332      0.03583448729986      0.38782765126819
  H   -4.05106070896311      1.45968765681653      0.76776851460996
  H   -2.99365339252195     -0.83357215433010      0.68924089953363
  H   -0.64184711040701     -1.09341214202018     -0.00880470963892
