20
Coordinates from ORCA-job opt
  O   0.24509350258311      0.77874668062542      1.78048425588212
  C   -0.64178074826953      0.89763417244308      0.94268186485451
  N   -1.32054552591031      2.11817204914720      0.79937411997639
  C   -1.09986059077679     -0.10862560479966      0.01054610838725
  C   -2.33573306579631      2.36389305671665     -0.07329655078551
  H   -0.99896507875966      2.87168446564257      1.39991170085843
  N   -2.86482232616816      3.66298332272044     -0.04407487480131
  C   -2.75739751781338      1.39704090911677     -0.93586161001181
  C   -2.80128799168441      4.56484431547739     -1.08252688284753
  C   -3.39991406059018      4.27634043666386      1.06759319485733
  C   -3.32532123468662      5.75919586047824     -0.63208679577567
  H   -2.37345369404133      4.27275897644852     -2.02844637655395
  C   -3.70417485849358      5.57721558023453      0.72097768416998
  H   -3.41489185255051      6.66147943823271     -1.21626413893170
  H   -4.16156175084610      6.30591010384612      1.37164547480182
  H   -3.55312356618938      3.71969110284903      1.97918897354925
  C   -2.10135400923152      0.14020644426376     -0.88413797528126
  H   -3.57808486517576      1.60302826775552     -1.60769958108140
  H   -2.41413852121120     -0.64508081570830     -1.56358918280602
  H   -0.60268324438835     -1.06881876215389      0.05528159153907
