20
Coordinates from ORCA-job opt
  O   -0.73603145110239      0.30340347317257     -2.34184896447812
  C   -1.14514143943324      0.63923966204230     -1.23591221519393
  N   -1.77767781768038      1.88634139115649     -1.08048602465129
  C   -1.07358478339225     -0.11317111812959     -0.00853733294810
  C   -2.30640182472629      2.38013174056276      0.07040305172611
  H   -1.91420789006964      2.38178134474603     -1.95383210159852
  N   -2.87312684608915      3.65930177741140     -0.00742274789399
  C   -2.21627985901223      1.65135315719527      1.22241834280251
  C   -3.62504082314789      4.24655595791585      0.98914927100072
  C   -2.60239648295578      4.60608721080569     -0.97746897417558
  C   -3.86208048095889      5.55440174045106      0.63208631557976
  H   -3.98519866815424      3.66960360760296      1.82403023100230
  C   -3.21194605651480      5.78354426948304     -0.60636408779964
  H   -4.44977100236212      6.25813623225114      1.20025643741181
  H   -3.18079122850772      6.70354713307133     -1.16853916725683
  H   -1.95189653467022      4.40120148580948     -1.81149637444970
  C   -1.59688518534300      0.37950718724538      1.15237829505777
  H   -2.56978514339566      2.05358177318407      2.15856657833004
  H   -1.52576780577680     -0.21168590000086      2.05904640635989
  H   -0.59998867670730     -1.08456212597638     -0.05672593882519
