20
Coordinates from ORCA-job opt
  O   -2.49187765438073     -0.44459604765553     -1.96635787229639
  C   -2.08815757774591      0.24692451261358     -1.03843147271261
  N   -2.52091088043544      1.57746991490007     -0.91273933594663
  C   -1.15418248520110     -0.13757781107326     -0.00496759183747
  C   -2.16311513146824      2.43882079028382      0.07753114193200
  H   -3.11989582857723      1.90991018808439     -1.66223213359764
  N   -2.73058996198127      3.71685223539350      0.00522647674063
  C   -1.28934859465191      2.05018939638316      1.04969057296253
  C   -4.06890870557546      3.98301459767678     -0.19435851221149
  C   -2.05090163426016      4.89691750073992      0.20433141828219
  C   -4.23628497258620      5.35082660922652     -0.12900006228772
  H   -4.78012243709807      3.17955764371729     -0.30695569178688
  C   -2.96522138026092      5.92625372671026      0.11740284495995
  H   -5.17534591712610      5.87045514835448     -0.23791523074143
  H   -2.73405463934148      6.97610629988201      0.20653969865250
  H   -0.98134697458315      4.89202537599900      0.34107095332630
  C   -0.77385348635744      0.73114568743470      0.97780225863571
  H   -1.04233159012946      2.72861226768997      1.85323607807354
  H   -0.07190450378185      0.40163218647264      1.73615494019587
  H   -0.76564564445785     -1.14623922283335     -0.05632948034297
