20
Coordinates from ORCA-job opt
  O   -1.10850338662736      0.15830097718811     -2.40032446574615
  C   -1.34665434564332      0.56886080547492     -1.27019045508002
  N   -1.92182846290952      1.83852328752279     -1.09154247982764
  C   -1.12297482292952     -0.12522004361605     -0.02328221006893
  C   -2.22396236349475      2.41293472259843      0.10354152223145
  H   -2.17055202177793      2.32173451331192     -1.94904659297176
  N   -2.77708167234769      3.69678487037801      0.03968440150189
  C   -1.99054872606969      1.74448999313268      1.26936783164671
  C   -3.79916631382570      4.15796978343507      0.83827230065500
  C   -2.35918180749540      4.70644132754955     -0.80189450179803
  C   -4.03719394367489      5.47295042601761      0.49718620047666
  H   -4.29054147421756      3.49445535444349      1.53155524959738
  C   -3.12684133872230      5.82015840803216     -0.53155241930255
  H   -4.79552149503148      6.10366434910315      0.93380215351579
  H   -3.02967052889693      6.77772664233719     -1.01864207126880
  H   -1.51742141510680      4.56437283355415     -1.46149577683664
  C   -1.44265025237800      0.44013568346219      1.17819339575220
  H   -2.18806926765145      2.22609631690027      2.21577372271467
  H   -1.25641468330254     -0.11359113898414      2.09205075045498
  H   -0.69922167789716     -1.11848911184152     -0.09175655564621
