25
Coordinates from ORCA-job mp2_opt
  C   -1.74692590042959     -0.69943512600121     -0.00000727969944
  C   -2.93503972109247     -1.44460640692486     -0.00001111885497
  C   -4.14870739669943     -0.79299816759062     -0.00002048693911
  C   -4.19435578195722      0.62080054159465     -0.00002947275807
  C   -3.04281982311917      1.35925741670014     -0.00002378035749
  H   -2.85821716178718     -2.52487753279728     -0.00000802172425
  H   -5.07080713941173     -1.36079482796256     -0.00001739332757
  H   -5.14219672165679      1.14305256125239     -0.00003984708001
  H   -3.00977501721420      2.44100764747706     -0.00002907157828
  C   0.26494328256190      0.05636548340799     -0.00001033428678
  C   1.72620188573741      0.02489282708381     -0.00001282483419
  C   2.39165616329982     -1.20741108168219     -0.00000967698891
  C   2.48146912225363      1.20424218280603      0.00000412642096
  C   3.78155151889394     -1.25472084785694     -0.00000698635821
  H   1.79989995806426     -2.11507341009642     -0.00001859335290
  C   3.87147546990346      1.15281392060363      0.00001803601073
  H   1.98424518312018      2.16839160676679      0.00001131490152
  C   4.52812425281473     -0.07707188266509      0.00000717574759
  H   4.28541846040287     -2.21488494043583     -0.00001211864087
  H   4.44344741989489      2.07402823192279      0.00003077329457
  H   5.61143522365881     -0.11634533286560      0.00001598203230
  N   -0.47142054503212     -1.08969134594932     -0.00000755219701
  C   -0.56023899203778      1.18230993674570     -0.00000890993788
  H   -0.35346745141810      2.24031842744022     -0.00001418946745
  N   -1.83722428875013      0.70698611902671     -0.00000975002429
