25
Coordinates from ORCA-job mp2_opt
  C   -1.76322694874763     -0.65956619886272      0.27537128568891
  C   -2.96753029826506     -1.31417773247246      0.57116882370835
  C   -4.16627885606416     -0.68799955148150      0.31071233108295
  C   -4.18060351471412      0.61013204254695     -0.25216428250329
  C   -3.01298414525418      1.26010522291865     -0.54283993639084
  H   -2.91423410300936     -2.30691952648118      1.00028632711502
  H   -5.10077541900164     -1.18699679198275      0.53522107766891
  H   -5.11666041273909      1.11095112585953     -0.46248950737797
  H   -2.95556092792394      2.25159382732090     -0.97248560009002
  C   0.26052509539752     -0.01283530175387     -0.02031475257554
  C   1.73022417841316     -0.03034402231160      0.01141236391983
  C   2.44716496788876     -0.80318616360608     -0.90708082229820
  C   2.42560644307777      0.76925044186863      0.92356538129595
  C   3.83921180276990     -0.78961710837811     -0.90080789196367
  H   1.90494249041616     -1.41861863390033     -1.61687840661078
  C   3.81840063506597      0.78181678811819      0.92897879084839
  H   1.86744555860489      1.36933945423843      1.63473760071435
  C   4.52760933129297      0.00352135300965      0.01613335909336
  H   4.38754336438378     -1.39341783197195     -1.61525606072868
  H   4.34955606101469      1.39844356115597      1.64545145324682
  H   5.61148628578822      0.01380353181929      0.01984102955417
  N   -0.49416768715453     -1.04998829072149      0.43594625540117
  C   -0.53318482698711      1.04234218008173     -0.46003633232352
  H   -0.28368332552094      2.00239354713632     -0.88345332796508
  N   -1.82244574873205      0.63471007784980     -0.27927915851059
