25
Coordinates from ORCA-job mp2_opt
  C   -1.74947386340803     -0.65682377879091      0.27273507864165
  C   -2.93978098998333     -1.32895232533764      0.58561006378592
  C   -4.15112835265285     -0.72157601116856      0.33942348259158
  C   -4.19246847849413      0.57479404851643     -0.22615134762727
  C   -3.03870408431800      1.24169710354522     -0.53331476050614
  H   -2.86585955581328     -2.31973100468101      1.01621182772876
  H   -5.07498738982169     -1.23408528030974      0.57716438909467
  H   -5.13866876179990      1.06085195458505     -0.42542488031165
  H   -3.00184583526786      2.23299102290255     -0.96565696091671
  C   0.26029195750449      0.02029466939137     -0.04914705433722
  C   1.73029824951403      0.01978052403588     -0.02931554279905
  C   2.42373487184675      0.78674022820055      0.91178929984601
  C   2.44754710167200     -0.78546556108401     -0.91913024562646
  C   3.81596673743569      0.76699332252426      0.94666115628384
  H   1.86444042000195      1.39285973508151      1.61694643698486
  C   3.83905782464890     -0.80434461950126     -0.88327403918286
  H   1.90597475534203     -1.39513809551478     -1.63432864111730
  C   4.52607177934011     -0.02701775182252      0.04813240827838
  H   4.34575644200860      1.36427607428488      1.68031490854382
  H   4.38804829967827     -1.42755455022907     -1.58032942267105
  H   5.60952245587385     -0.04333605930521      0.07608197160716
  N   -0.47272209174669     -1.02766745188250      0.41805941507276
  C   -0.55492458247931      1.06189072540008     -0.48138136107487
  H   -0.32578031497290      2.02490518705964     -0.90951844615706
  N   -1.83552659410872      0.63504089409977     -0.28372473613179
