25
Coordinates from ORCA-job mp2_opt
  C   -1.75046043120038     -0.68896244317852     -0.15179406368641
  C   -2.94525620833583     -1.40694376490106     -0.30669040217870
  C   -4.15344249224652     -0.76116700028764     -0.16256553569603
  C   -4.18727976981361      0.62024545670696      0.14066341346159
  C   -3.02931397806551      1.33330479287264      0.28865586396702
  H   -2.87761696492352     -2.46292360973373     -0.53713229235801
  H   -5.08027464315982     -1.30871516188787     -0.28032934541967
  H   -5.13063275538699      1.13702644519661      0.25997842671763
  H   -2.98696833459051      2.39002294180588      0.51819887423240
  C   0.26506427924312      0.03530748707113     -0.00299969027081
  C   1.72564138890324      0.00846925514149     -0.01919691751319
  C   2.40286020043836     -1.16113778762431      0.34555826533689
  C   2.46386696211599      1.14697665991414     -0.36367028171304
  C   3.79335843671269     -1.18940059631822      0.35987919884106
  H   1.82204056284414     -2.03781268305857      0.60814422124550
  C   3.85501568529666      1.11595465007715     -0.34515477595259
  H   1.94531662683722      2.04911671742116     -0.67214287879133
  C   4.52437785109094     -0.05160692301550      0.01846666898163
  H   4.31002168279624     -2.09972257067581      0.64295268552117
  H   4.41756404146077      2.00060764428914     -0.62190174325458
  H   5.60806640497275     -0.07627703168722      0.02964355303691
  N   -0.47714972428515     -1.08197844498464     -0.23854997679784
  C   -0.54800131856329      1.14375623055053      0.23242163242779
  H   -0.32253910803265      2.16812455040453      0.48296182407745
  N   -1.82919339410835      0.68825118590172      0.13977127578517
