25
Coordinates from ORCA-job mp2_opt
  C   -1.74767049085760     -0.69586463868795     -0.10854422640684
  C   -2.93877806849987     -1.42824963136869     -0.21814918758533
  C   -4.15021397847859     -0.77991098772023     -0.11945739562178
  C   -4.19115154899984      0.61829107435589      0.09174795927691
  C   -3.03685223241793      1.34488526543745      0.19643406600898
  H   -2.86593389881363     -2.49682967435618     -0.37830454287964
  H   -5.07428291444730     -1.33837552530717     -0.20248938873337
  H   -5.13713556366482      1.13751938045511      0.17364442325249
  H   -2.99982708150279      2.41461036928211      0.35627337026322
  C   0.26505340236470      0.04616564361756     -0.00277534051750
  C   1.72556969327579      0.01896530132818     -0.00467021414646
  C   2.47107920932922      1.17837644221969     -0.25122531338618
  C   2.39731174964218     -1.18586385806288      0.23518821839891
  C   3.86173510062824      1.13729190067497     -0.24176010236236
  H   1.96138995288636      2.11071537451634     -0.47145898069610
  C   3.78760851821085     -1.22383766585108      0.23952880459411
  H   1.81133005515027     -2.07961002059582      0.41485740581099
  C   4.52543458418317     -0.06359087506449      0.00550495960125
  H   4.42845156598987      2.04076861085572     -0.43741577558391
  H   4.29885367450834     -2.16125554041203      0.42837038458623
  H   5.60897805570128     -0.09582902127606      0.00928607131552
  N   -0.47274983928474     -1.08708668597484     -0.16658415478665
  C   -0.55497945130384      1.16290983371418      0.16221289341398
  H   -0.33907817953470      2.20366897143408      0.34331964141219
  N   -1.83353531406464      0.69655195678613      0.09450942477133
