25
Coordinates from ORCA-job mp2_opt
  C   -1.75175437615254     -0.68501668507760      0.17365360142244
  C   -2.94801772341853     -1.39516959820091      0.35138930541306
  C   -4.15484263303121     -0.75193847901721      0.18634061105455
  C   -4.18575744247948      0.61916665847621     -0.16091076319629
  C   -3.02632198202296      1.32474544015447     -0.33126223844089
  H   -2.88248325654965     -2.44338174216257      0.61539006294993
  H   -5.08280750610272     -1.29357758780280      0.32127449145076
  H   -5.12804164098030      1.13374708374026     -0.29703256736049
  H   -2.98179197044810      2.37347639741913     -0.59444730025436
  C   0.26489555260909      0.02964046122787      0.00120691143007
  C   1.72582887714610      0.00388562602078      0.02248846681416
  C   2.40672415669810     -1.14389760575116     -0.39973793421258
  C   2.45938880254884      1.12774265265752      0.42019525422106
  C   3.79734857995796     -1.16701383912467     -0.41466873651799
  H   1.82938017789131     -2.00907766376096     -0.70507055753852
  C   3.85084966062407      1.10204998391639      0.40152852803408
  H   1.93573974863800      2.01177704575247      0.76985650377689
  C   4.52394363208378     -0.04452173967398     -0.01751806884728
  H   4.31742304815863     -2.06031472900453     -0.74217054685126
  H   4.41058740707133      1.97398912048690      0.72097603023622
  H   5.60771200387508     -0.06510858044593     -0.02898041129276
  N   -0.47909145082131     -1.07795552734267      0.27329509882172
  C   -0.54518731499225      1.13221355950164     -0.26766636136614
  H   -0.31555890594224      2.14732466682472     -0.55034385670388
  N   -1.82753144436099      0.68248508118662     -0.16132952304251
