25
Coordinates from ORCA-job mp2_opt
  C   -1.74704632971367     -0.69920793278024     -0.03527012953405
  C   -2.93556422609392     -1.44330963280799     -0.06131669940193
  C   -4.14890683151105     -0.79191244791288     -0.02762349072717
  C   -4.19386667710607      0.62060739427046      0.03313548702025
  C   -3.04196262466221      1.35808908982839      0.05731481354622
  H   -2.85931974859983     -2.52264151317596     -0.10724251505421
  H   -5.07127822235918     -1.35893367148725     -0.04704020589404
  H   -5.14142524197533      1.14260616502556      0.06152933926787
  H   -3.00833494899163      2.43885066255425      0.10310448177896
  C   0.26498872881928      0.05549457495664     -0.01452409872366
  C   1.72613557585764      0.02417286413862     -0.01238420877343
  C   2.48082802904143      1.20230761749226     -0.07374463571132
  C   2.39171018306772     -1.20596726027132      0.05872254561116
  C   3.87085138834940      1.15190443380093     -0.06128428224072
  H   1.98276964243749      2.16373820661644     -0.14077543893676
  C   3.78162363889820     -1.25231139582104      0.06960820528376
  H   1.80015799331111     -2.11260731952895      0.10485082452332
  C   4.52772852018229     -0.07573235231184      0.01127104369256
  H   4.44265258467111      2.07191902293202     -0.11027092463932
  H   4.28588187593776     -2.21065350139130      0.12532095898660
  H   5.61103228940834     -0.11428964976102      0.02021175403659
  N   -0.47165840992550     -1.08962644979778     -0.05624561945469
  C   -0.55954903200305      1.18071330017456      0.03602112038822
  H   -0.35177097033981      2.23719684348017      0.08933689627658
  N   -1.83672618670055      0.70611895177728      0.02214577867920
