25
Coordinates from ORCA-job mp2_opt
  C   -1.74948168286258     -0.65680473964741     -0.27273584125945
  C   -2.93979850195193     -1.32893280086576     -0.58557988533941
  C   -4.15113792969315     -0.72152926531381     -0.33941860056399
  C   -4.19246865054876      0.57486711271292      0.22609863060315
  C   -3.03869642307860      1.24176956638976      0.53323033103532
  H   -2.86590747113540     -2.31973133023520     -1.01614029208828
  H   -5.07500127274843     -1.23404031868549     -0.57713951393226
  H   -5.13866513124862      1.06094260974246      0.42534708910632
  H   -3.00180933514491      2.23308222629922      0.96552740267460
  C   0.26028760675860      0.02030921434280      0.04913011583540
  C   1.73029457119658      0.01977631485675      0.02930946694963
  C   2.42374768815620      0.78668945712111     -0.91182194021955
  C   2.44752499255606     -0.78543883213823      0.91916840634280
  C   3.81597912021466      0.76693133934634     -0.94667561029197
  H   1.86445756509473      1.39277861600495     -1.61700862650390
  C   3.83903774316849     -0.80433460267232      0.88333384205288
  H   1.90593641471493     -1.39507460463167      1.63438606328856
  C   4.52606754104251     -0.02704590436245     -0.04810010338088
  H   4.34578983242055      1.36417473685690     -1.68034616791237
  H   4.38801302608458     -1.42751745947029      1.58042508764172
  H   5.60951854217026     -0.04336689970173     -0.07603869280308
  N   -0.47273433582880     -1.02766342101349     -0.41804209550048
  C   -0.55492158402967      1.06193312916846      0.48130840204065
  H   -0.32576525024535      2.02496779279478      0.90939359589839
  N   -1.83552707506194      0.63508506310141      0.28366693632623
