25
Coordinates from ORCA-job mp2_opt
  C   -1.75586363208028     -0.67758933872154      0.21386653435089
  C   -2.95610826073100     -1.36861137245241      0.43448228270535
  C   -4.15918539476180     -0.72949882364914      0.23097151248376
  C   -4.18225495052096      0.61854984104196     -0.19797367024532
  C   -3.01888816689325      1.30553018855595     -0.41123801660560
  H   -2.89645715928372     -2.39943796680080      0.76080881152503
  H   -5.09025691852681     -1.25665489902205      0.39800237435847
  H   -5.12160903100072      1.12957811328103     -0.36443200750134
  H   -2.96827079793083      2.33615593656733     -0.73722197580153
  C   0.26412259757179      0.01316661205160     -0.00306750365237
  C   1.72634990268870     -0.00970855384287      0.02810887190189
  C   2.41821787990836     -1.10191684004909     -0.50728266870158
  C   2.44773293820873      1.07807249869133      0.53260823015331
  C   3.80921110857701     -1.11066185634172     -0.52185401151890
  H   1.85100461833551     -1.93854357919857     -0.89962236408042
  C   3.83980077283810      1.06715380316339      0.51523907109031
  H   1.91224633461814      1.91886587197724      0.96195022869093
  C   4.52385793436742     -0.02600589718506     -0.01360992795702
  H   4.33842192060493     -1.96085198243965     -0.93752776986482
  H   4.39104629053860      1.90870572506924      0.91967074423114
  H   5.60777026811414     -0.03498241245890     -0.02519436749913
  N   -0.48502547621031     -1.07142917151803      0.33806392427975
  C   -0.53867047836211      1.10289643562671     -0.33505947411662
  H   -0.30005865246824      2.09841083326899     -0.67464594110731
  N   -1.82386564760140      0.66764383438506     -0.20299988711884
