25
Coordinates from ORCA-job mp2_opt
  C   -1.76370601838101     -0.65916457325138     -0.27809438423455
  C   -2.96910027548238     -1.31041438204571     -0.57690376295696
  C   -4.16683084872501     -0.68360437867635     -0.31331861429885
  C   -4.17905667438709      0.61185954260370      0.25569547547427
  C   -3.01040732941931      1.25883851549490      0.54892330650834
  H   -2.91740175673175     -2.30128463438281     -1.01051994491015
  H   -5.10214436979015     -1.18014123478968     -0.53986375063285
  H   -5.11432416590442      1.11299678160834      0.46875705184322
  H   -2.95139600818670      2.24821697100807      0.98319041780346
  C   0.26112247801640     -0.01713007489428      0.02080781593008
  C   1.72938481410122     -0.03437136672073     -0.01714278120669
  C   2.44671739338953     -0.89307964330084      0.82158918376155
  C   2.42453091954843      0.85603869637664     -0.84134112601704
  C   3.83852585622597     -0.87671918890733      0.81814774120695
  H   1.90416639944810     -1.57657766990112      1.46573068770263
  C   3.81726514925637      0.87193725706839     -0.84297664056382
  H   1.86624120520169      1.52273445137206     -1.49047621492104
  C   4.52679745630657      0.00656897469977     -0.01259472044143
  H   4.38711963836190     -1.54744307779761      1.46998216590174
  H   4.34810238471679      1.55851951179457     -1.49300843489692
  H   5.61065045088367      0.01893204110717     -0.01377381116380
  N   -0.49539331043512     -1.05055985730982     -0.44091833641573
  C   -0.53108837835283      1.03824106136338      0.46368240921830
  H   -0.28030803919411      1.99497374652515      0.89386173018101
  N   -1.82082997046675      0.63310953095552      0.28174553712826
