25
Coordinates from ORCA-job mp2_opt
  C   -1.74756582003147     -0.69750989984799     -0.08809490820143
  C   -2.93798710346549     -1.43469072728269     -0.16904354664835
  C   -4.14989381204277     -0.78483570349484     -0.08758551362622
  C   -4.19188050489201      0.61952054520857      0.07716501297439
  C   -3.03823444874125      1.35061245185210      0.15408108314745
  H   -2.86429911844458     -2.50792356247155     -0.29386934182226
  H   -5.07352548052628     -1.34685015081808     -0.14855618492976
  H   -5.13825610637404      1.14005577888646      0.14493663712967
  H   -3.00205932304939      2.42506509487317      0.27857858974296
  C   0.26509595724558      0.04980915735967     -0.01323829308944
  C   1.72575734001826      0.02054204913600     -0.01250525039875
  C   2.47543725308101      1.18889750424947     -0.19713237319577
  C   2.39429090164650     -1.19525000327656      0.17637606122711
  C   3.86581550919884      1.14437778651025     -0.18149001267708
  H   1.97084672098706      2.13329917086475     -0.37267942212498
  C   3.78444691429583     -1.23629019661493      0.18754689951146
  H   1.80548651073055     -2.09479607132734      0.31204681964743
  C   4.52605815907905     -0.06813656450498      0.01269230051293
  H   4.43514887345800      2.05543802383943     -0.32836041800703
  H   4.29250794507678     -2.18265236413661      0.33609838030565
  H   5.60950096846573     -0.10265408859887      0.02217262867105
  N   -0.47258783999101     -1.08867710961237     -0.13709635076354
  C   -0.55633063231390      1.17026266522341      0.11835520751345
  H   -0.34323101047601      2.21744450483013      0.26123062848417
  N   -1.83446285293501      0.70052270915343      0.06987536661688
