25
Coordinates from ORCA-job mp2_opt
  C   -1.76037226602404     -0.69332450214037      0.16622812726476
  C   -2.96099691552326     -1.39620283748114      0.34292996737315
  C   -4.16348296601307     -0.74245229365475      0.18872101549719
  C   -4.18524095021505      0.63200178366188     -0.14648184458162
  C   -3.02113836301303      1.32845220495681     -0.32117686112716
  H   -2.90193490941889     -2.44694379266903      0.59822329643597
  H   -5.09503205704975     -1.27800786771856      0.32323481418126
  H   -5.12404910751397      1.15589732745254     -0.27053250551842
  H   -2.96953975151614      2.37867865816256     -0.57701185002683
  C   0.25984224295939      0.00418765996714     -0.01816250698011
  C   1.73145780568086     -0.01671271197842     -0.00224098824721
  C   2.44452397573252     -0.42778061397582     -1.13238553851546
  C   2.43049655291898      0.40206340491300      1.13379006476825
  C   3.83699308437430     -0.42987804343534     -1.12237379456256
  H   1.89979696456812     -0.75311450184628     -2.01228022213701
  C   3.82324343125034      0.40172296656788      1.14214732803406
  H   1.87514184196371      0.71913553808230      2.01016723604304
  C   4.52868822538551     -0.01374347860714      0.01413524471825
  H   4.38257254943317     -0.75319100156009     -2.00177045200763
  H   4.35779041561503      0.72435075556846      2.02855461904630
  H   5.61270508359069     -0.01459545791348      0.02109583111415
  N   -0.48901236380397     -1.09822231536825      0.25986134136767
  C   -0.53960054996397      1.11202595568078     -0.28139217225521
  H   -0.29560987300161      2.13177399419138     -0.53378033707248
  N   -1.82688110041587      0.67406316914394     -0.16713981281234
