25
Coordinates from ORCA-job mp2_opt
  C   -1.74775460120152     -0.69692376303462     -0.08530635728025
  C   -2.93843065655943     -1.43393725849764     -0.16388482712818
  C   -4.15009520344026     -0.78361280213415     -0.08250456376655
  C   -4.19154407354343      0.62104101365599      0.07980292662129
  C   -3.03763814789388      1.35196656853045      0.15443658399251
  H   -2.86513840559463     -2.50740960564198     -0.28687023065004
  H   -5.07393330168007     -1.34547875427218     -0.14166621549588
  H   -5.13771911196114      1.14195229298848      0.14749156597777
  H   -3.00106831286995      2.42662696799254      0.27701293309352
  C   0.26520996461577      0.04992280770293     -0.01328838514730
  C   1.72586943842535      0.02004148127160     -0.01337861750601
  C   2.39387111595164     -1.19585836890992      0.17675396646437
  C   2.47610241525239      1.18883866495695     -0.19290501309441
  C   3.78399113012863     -1.23710470215216      0.19087792575993
  H   1.80465021327433     -2.09542932905777      0.31042437419200
  C   3.86643254275609      1.14408665047266     -0.17443250976375
  H   1.97206112507110      2.13368652380311     -0.36759379072393
  C   4.52612769408802     -0.06877998508441      0.01940271845888
  H   4.29159366295624     -2.18364187644321      0.33988197802514
  H   4.43617451191051      2.05545047047526     -0.31779639517099
  H   5.60954368160696     -0.10341284161677      0.03122062383381
  N   -0.47293710496245     -1.08853092091725     -0.13465537248580
  C   -0.55580524382557      1.17085564766791      0.11691164815407
  H   -0.34235258652382      2.21824126816277      0.25771698219659
  N   -1.83411374598086      0.70140085008141      0.07030805144322
