25
Coordinates from ORCA-job mp2_opt
  C   -1.76283973396067     -0.67019388103836     -0.24963220156132
  C   -2.96617031655215     -1.34072514875438     -0.51199443549180
  C   -4.16595486072857     -0.70639085862041     -0.27713498289097
  C   -4.18224336468819      0.61632596604306      0.22521938949359
  C   -3.01555155530217      1.28112983476995      0.48456913272881
  H   -2.91130530953675     -2.35212375769754     -0.89489559007551
  H   -5.09970533946315     -1.21760420594574     -0.47579102843833
  H   -5.11903547376032      1.12457458646114      0.41329307954106
  H   -2.95966554590949      2.29145635939255      0.86808499320296
  C   0.26000871852727     -0.00791963526023      0.01700696594853
  C   1.73095620727412     -0.02695780630994     -0.00774757604955
  C   2.44567705724429     -0.66978163672953      1.00742197177046
  C   2.42840709292033      0.63774728461332     -1.02078103817047
  C   3.83797020157093     -0.66082189778171      1.00043646834314
  H   1.90205012346087     -1.18143861397497      1.79441602947912
  C   3.82125246201947      0.64717559334157     -1.02627355338147
  H   1.87186054041977      1.13636768133917     -1.80746486512971
  C   4.52819398700288     -0.00123217067936     -0.01535709789388
  H   4.38469904117914     -1.16367770520358      1.79026240337255
  H   4.35434342563047      1.15964051409233     -1.81923988122891
  H   5.61213636060209      0.00632430780096     -0.01955776493885
  N   -0.49305725354531     -1.06491307076310     -0.39431641488209
  C   -0.53525379912735      1.06284776241481      0.41346073208987
  H   -0.28714840188780      2.04179855409648      0.79200513540248
  N   -1.82402326338973      0.64631694439352      0.24937012876029
