25
Coordinates from ORCA-job mp2_opt
  C   -1.74946836232747     -0.69247813319890     -0.12938909455296
  C   -2.94295824636558     -1.41753726001631     -0.25963472180164
  C   -4.15231362423171     -0.76946910051407     -0.13686598448920
  C   -4.18870972132706      0.62125659832920      0.11984831779828
  C   -3.03206130473421      1.34095362453860      0.24425329373770
  H   -2.87350302363562     -2.48053248221215     -0.45460606568422
  H   -5.07816141717842     -1.32236995815355     -0.23582083601516
  H   -5.13300203316323      1.14008273342401      0.22152521271523
  H   -2.99159955680907      2.40484613658960      0.43837450609947
  C   0.26515171710388      0.04021348032028     -0.00527953665428
  C   1.72557529320563      0.01236694490644     -0.01657568315476
  C   2.39957297346482     -1.17582290013717      0.28993015987615
  C   2.46801943413283      1.16353525848188     -0.30628648058447
  C   3.78996105441314     -1.20870263772122      0.30351365815390
  H   1.81574352041551     -2.06212501974394      0.50961577296349
  C   3.85887076330532      1.12774853562791     -0.28791701889751
  H   1.95443483739161      2.08199242508179     -0.57163576157852
  C   4.52491786628818     -0.05793095381198      0.01896064244156
  H   4.30349932421131     -2.13354509075634      0.54168090457163
  H   4.42388656622624      2.02342081290616     -0.52077177998222
  H   5.60852007155523     -0.08615261677570      0.02993323251455
  N   -0.47562049285468     -1.08543840861680     -0.20345771032307
  C   -0.55063896766102      1.15383420866590      0.19562502613237
  H   -0.32925603543640      2.18688257971672      0.41138583278323
  N   -1.83080863598924      0.69324022306966      0.11740211393044
