25
Coordinates from ORCA-job mp2_opt
  C   -1.74712890405252     -0.68657660738520     -0.17190468293670
  C   -2.93829526221015     -1.40178886955712     -0.36310593410920
  C   -4.14960224248959     -0.76385299584953     -0.21082809266658
  C   -4.19024640885159      0.60697932053386      0.13649846456978
  C   -3.03580638761166      1.31749376137257      0.31971117446440
  H   -2.86537060702764     -2.44959238053938     -0.62679322342257
  H   -5.07371683677582     -1.30944561756526     -0.35590803680350
  H   -5.13616432709270      1.11745787753954      0.26245159246426
  H   -2.99866944226794      2.36629887545699      0.58374437700661
  C   0.26440971535601      0.03654622937740      0.02291378142818
  C   1.72564960540633      0.01791041107271      0.01438641629448
  C   2.45587359058183      1.13219953123791     -0.41527508060166
  C   2.40917424033689     -1.13841963763210      0.40767404659511
  C   3.84730129593520      1.10020979760278     -0.42450310006040
  H   1.92917814828222      2.01622266211968     -0.76031825755421
  C   3.79967895111193     -1.16797275722208      0.39441548314816
  H   1.83409439436196     -2.00303795315346      0.71871979452538
  C   4.52337531950894     -0.04896239320046     -0.01762338593686
  H   4.40435516060403      1.96677271111831     -0.76271791919710
  H   4.32198266375754     -2.06594303365097      0.70515010232615
  H   5.60702664683238     -0.07504949446520     -0.02904379646375
  N   -0.47176013751466     -1.07415189709450     -0.25749695073667
  C   -0.55332930765150      1.13529693162821      0.28407464010861
  H   -0.33099542527208      2.15141399054013      0.56905014166154
  N   -1.83248044325742      0.68038653771516      0.16300844589656
