25
Coordinates from ORCA-job mp2_opt
  C   -1.75586746709545     -0.67762104225519     -0.21388297572720
  C   -2.95610780219467     -1.36865104043580     -0.43449356259306
  C   -4.15918971837140     -0.72953745692745     -0.23100674210146
  C   -4.18226422447481      0.61851879007326      0.19791127432522
  C   -3.01890114284053      1.30550696764441      0.41117269719142
  H   -2.89645099122534     -2.39948416346462     -0.76079878734949
  H   -5.09025732145444     -1.25669986349408     -0.39803912809364
  H   -5.12161790666912      1.12955443477794      0.36435108410939
  H   -2.96829473072121      2.33613947374719      0.73713699863373
  C   0.26411600676846      0.01314188178023      0.00306026454950
  C   1.72634393437051     -0.00974135123723     -0.02809723954507
  C   2.41819368825129     -1.10194556870066      0.50732752675309
  C   2.44774190450949      1.07802943759361     -0.53259580728728
  C   3.80918671449659     -1.11069623380901      0.52193164207303
  H   1.85096532076757     -1.93856312832570      0.89966477736374
  C   3.83980919049616      1.06710312260494     -0.51519659754473
  H   1.91227050025106      1.91882008308127     -0.96196247163607
  C   4.52384928165958     -0.02605012386589      0.01368792968493
  H   4.33838437615150     -1.96088067607143      0.93763372221145
  H   4.39106919406762      1.90864656786944     -0.91962579613637
  H   5.60776103973564     -0.03502912824739      0.02529721598400
  N   -0.48502669615206     -1.07146016298787     -0.33806375650929
  C   -0.53868285540962      1.10287909271672      0.33501403947452
  H   -0.30007506481498      2.09840048494912      0.67458281345302
  N   -1.82387523010185      0.66762060298420      0.20295687871662
