25
Coordinates from ORCA-job mp2_opt
  C   -1.76349533470527     -0.66178349595945     -0.27296438881810
  C   -2.96932991168674     -1.31613608670963     -0.56317020491715
  C   -4.16674839467867     -0.68697323880321     -0.30369935341872
  C   -4.17828581696126      0.61408009516541      0.25241176849710
  C   -3.00926156575440      1.26453331308763      0.53638250607348
  H   -2.91826149719655     -2.31136673630868     -0.98676268712976
  H   -5.10234142508783     -1.18600320570285     -0.52350856197186
  H   -5.11329296921819      1.11687332828938      0.46270866861082
  H   -2.94970661841863      2.25824264250356      0.96058508821438
  C   0.26173363003195     -0.01624164797105      0.01602993820143
  C   1.72861741816829     -0.03404120317319     -0.02400866054867
  C   2.44283661590252     -0.95687052993327      0.74704158559705
  C   2.42692951926145      0.91935943608677     -0.77198990293219
  C   3.83447755573101     -0.94103277487252      0.74940064886942
  H   1.89699104213462     -1.68818557210264      1.33319229752676
  C   3.81964087576482      0.93475631493075     -0.76725379050252
  H   1.87122436920195      1.63444659171098     -1.36991604579199
  C   4.52596731683637      0.00566705985215     -0.00572102140117
  H   4.38081632107909     -1.66121226557978      1.34819220108938
  H   4.35308640138535      1.67011775121520     -1.35918655370716
  H   5.60983543404578      0.01748975770576     -0.00221290557866
  N   -0.49547549571793     -1.05462005386956     -0.43338651540070
  C   -0.53024025016008      1.04424265903167      0.44799665529782
  H   -0.27939020515006      2.00432703254620      0.87066206851799
  N   -1.81997401480758      0.63671782886036      0.27271516562302
