25
Coordinates from ORCA-job mp2_opt
  C   -1.74680034834419     -0.66944786952409      0.24314975358305
  C   -2.93648932604368     -1.35489047070487      0.52846819136939
  C   -4.14849465447420     -0.73654284505043      0.31448733966112
  C   -4.19124503050494      0.58460576345532     -0.19020566736772
  C   -3.03820183093352      1.26611027915773     -0.46691714957094
  H   -2.86174049804128     -2.36484168552584      0.91184927933367
  H   -5.07173422578690     -1.25949311857457      0.53092881188198
  H   -5.13793555383219      1.07880913099306     -0.36571994175440
  H   -3.00248041487422      2.27666752174100     -0.85224369834592
  C   0.26234393118259      0.02242368059265     -0.05203353913303
  C   1.72725753590602      0.01918468206244     -0.03409646878765
  C   2.43201497534943      1.02422363071290      0.63682625322142
  C   2.43304766905695     -1.02536026352742     -0.64019670588652
  C   3.82402256075298      1.00346569999542      0.67100135345358
  H   1.88209460662204      1.81307501471780      1.14001221629786
  C   3.82385153650787     -1.04437971789154     -0.60410876865374
  H   1.87930882337726     -1.81514809399866     -1.13571461038466
  C   4.52280125631460     -0.02893336308617      0.04812129087812
  H   4.36261060503260      1.78486423130219      1.19543411098668
  H   4.36456383867307     -1.85285293770407     -1.08330655785359
  H   5.60626142035146     -0.04644517753450      0.07694697427934
  N   -0.47018257483463     -1.04710625278016      0.36440570642073
  C   -0.55497435719995      1.08579010915480     -0.42771781241323
  H   -0.32891545202356      2.06460312690594     -0.82043389552500
  N   -1.83420049223361      0.64934892511107     -0.24742846569052
