25
Coordinates from ORCA-job mp2_opt
  C   -1.74731084278968     -0.69859682998572      0.06465727713874
  C   -2.93676261928344     -1.43982137288169      0.11764504960547
  C   -4.14936898200034     -0.78902222807293      0.05675171379213
  C   -4.19284776485165      0.62013775696864     -0.05892583364423
  C   -3.04009413156627      1.35499141040611     -0.10875101307292
  H   -2.86180861813887     -2.51665848042476      0.20519258778507
  H   -5.07236489711874     -1.35397252711870      0.09641735079013
  H   -5.13980313843182      1.14152362803569     -0.10990972605063
  H   -3.00517641475199      2.43315343003788     -0.19601592319863
  C   0.26506136637598      0.05312077608233      0.01897788356829
  C   1.72596699766431      0.02246390565414      0.01660751374126
  C   2.47877751561197      1.19697499577997      0.13948211386042
  C   2.39240222512306     -1.20184062980690     -0.11747138135319
  C   3.86891636687613      1.14919635383687      0.12165047837279
  H   1.97819119487243      2.15128994574692      0.26518870098077
  C   3.78238648102861     -1.24583022238911     -0.13216106807108
  H   1.80171462142475     -2.10566188712611     -0.20881311546591
  C   4.52683695373760     -0.07232901748532     -0.01571338226635
  H   4.43994363711254      2.06576642390620      0.21957866692631
  H   4.28804606498628     -2.19925423461136     -0.23745077276571
  H   5.61017581075957     -0.10908585885347     -0.02794942634740
  N   -0.47215929945733     -1.08938472614586      0.10207884949907
  C   -0.55799546824613      1.17639399818467     -0.07552893285927
  H   -0.34780844829187      2.22895607420122     -0.17654886418761
  N   -1.83561961064511      0.70377331606130     -0.04551674677752
