25
Coordinates from ORCA-job mp2_opt
  C   -1.74701078772685     -0.69916202125512      0.03230334095768
  C   -2.93551428045738     -1.44325951047550      0.05942753972793
  C   -4.14889129501878     -0.79179117393342      0.02840532411799
  C   -4.19391215831529      0.62079851945595     -0.03071337533234
  C   -3.04202760357140      1.35826911896552     -0.05593428828497
  H   -2.85922869877157     -2.52264269636507      0.10405754678629
  H   -5.07124716936420     -1.35880732772877      0.04866912820022
  H   -5.14149610180451      1.14286051207274     -0.05696969449546
  H   -3.00844283880587      2.43908227646621     -0.10054502790478
  C   0.26500206884244      0.05553668800263      0.00948872936670
  C   1.72615126581539      0.02429982077288      0.00550545959745
  C   2.39181810222127     -1.20604072465995     -0.06121050140993
  C   2.48076942218841      1.20232089256267      0.06980066657876
  C   3.78175705254877     -1.25250826256497     -0.06888480115104
  H   1.80029448623684     -2.11270467559105     -0.10728540229795
  C   3.87081280654662      1.15184763458149      0.06048617184546
  H   1.98262301450521      2.16380336020718      0.13537170326885
  C   4.52780115960444     -0.07585962064043     -0.00969150575984
  H   4.28610446312512     -2.21095040140740     -0.12193178516895
  H   4.44255003648717      2.07182931067285      0.11084383445734
  H   5.61112197820985     -0.11450386631389     -0.01594439345638
  N   -0.47160033457975     -1.08962598843674      0.05089735162496
  C   -0.55959677502454      1.18080775410916     -0.03876585513203
  H   -0.35188479153945      2.23735833980004     -0.09100046073922
  N   -1.83675702135195      0.70622604170299     -0.02344370539674
