27
Coordinates from ORCA-job mp2_opt
  C   1.48051062529179      2.55252153545434     -0.27468993794378
  C   2.33579422457383      0.44014282306976     -0.06531131435614
  C   1.03251685223126     -0.14169157798758      0.05129580947941
  C   -0.09104747151752      0.72822615066607     -0.04198286367920
  C   0.15788717470512      2.08021753105797     -0.19121704597768
  H   4.44576319770888      0.07809068716081     -0.10252287721907
  H   1.66493463944910      3.61631128988841     -0.40161755968543
  C   3.47508431479463     -0.39321562902297      0.00386229855656
  C   0.92904733546658     -1.53240011991556      0.29894024633232
  H   -0.66911117748296      2.77669114792087     -0.28399332486565
  C   2.06175067656735     -2.31346564576094      0.37716686471422
  C   3.34224194743435     -1.74677572521017      0.21390018993124
  H   -0.04828082854016     -1.97510640228178      0.45088611375558
  H   1.96611836709045     -3.37567310529848      0.57390648205204
  H   4.22258341069703     -2.37714395671722      0.26987158119008
  C   -1.48025765251942      0.23588390666305     -0.02753951352474
  C   -1.88686941446807     -0.80600961313849     -0.87195423428468
  C   -2.42531692505141      0.82900362124839      0.81916306623909
  C   -3.21055115434422     -1.23656063766154     -0.87378742114447
  H   -1.16784695694351     -1.25264098423843     -1.55052088073093
  C   -3.74683955278316      0.39085696402709      0.82188230565845
  H   -2.11134716495805      1.62178363780545      1.49052971989314
  C   -4.14348682735439     -0.64262279911411     -0.02487790742455
  H   -3.51503786103113     -2.03332918421750     -1.54317759483662
  H   -4.46590856452139      0.85377958458775      1.48846143990222
  H   -5.17294368135337     -0.98193289077277     -0.02504530044905
  N   2.54908046685836      1.77579639178758     -0.23280434158235
