27
Coordinates from ORCA-job mp2_opt
  C   1.60027195156535      2.53986326269230      0.00052422019525
  C   2.34493269389581      0.37448979619522     -0.00021892107306
  C   1.01109219636552     -0.14100641144186     -0.00041957290987
  C   -0.06091163920858      0.79023367397651     -0.00035458743496
  C   0.25036517794461      2.13404797489673      0.00047365775205
  H   4.43206699777594     -0.11224696805794     -0.00006046333603
  H   1.84238306299742      3.59965039343094      0.00083074347690
  C   3.43116209116308     -0.52922092459272     -0.00015104440913
  C   0.80986063988231     -1.54182526502580     -0.00015849670971
  H   -0.53997890220504      2.87756360813098      0.00071292787226
  C   1.89225501610674     -2.39451658888600      0.00005615380836
  C   3.20909495557728     -1.88800013491213     -0.00003364693195
  H   -0.20269821489692     -1.93113131042035      0.00010360103791
  H   1.73119143043367     -3.46702042729641      0.00037604035484
  H   4.04859584582489     -2.57423767970198      0.00011822640337
  C   -1.46364146420969      0.32235151959286     -0.00022965158059
  C   -2.13327015495665      0.09898595552779      1.20696358174979
  C   -2.12859625133283      0.08402097520745     -1.20717528660333
  C   -3.45112107117007     -0.35324787274561      1.20618562283383
  H   -1.61486764319768      0.28015710622650      2.14304261148837
  C   -3.44646544859368     -0.36810531181084     -1.20593822589979
  H   -1.60664973405019      0.25389522758272     -2.14341224418380
  C   -4.10918064149958     -0.58882473763862      0.00026697557436
  H   -3.96298676818177     -0.52276122064479      2.14689915368877
  H   -3.95475609102621     -0.54900009168908     -2.14647457963057
  H   -5.13394592725787     -0.94179565750601      0.00046241111212
  N   2.62774789225414      1.70813410891013      0.00009379335462
