27
Coordinates from ORCA-job mp2_opt
  C   1.41289205934055      2.56161831003530      0.27008082686464
  C   2.32791538329438      0.47234652528256      0.10092518361791
  C   1.04691398683326     -0.13950666125533     -0.08912453017118
  C   -0.10427845832204      0.70060066627739     -0.04801415582496
  C   0.10846107834550      2.05765480378160      0.12126792242888
  H   4.44073255591343      0.16408847546524      0.25187378696995
  H   1.56313947797107      3.62911679600090      0.41024111041616
  C   3.49059585182924     -0.33123011861981      0.08577630088163
  C   0.99807892256003     -1.52609232172668     -0.37665751620867
  H   -0.73516640863388      2.73551262097004      0.19527845715910
  C   2.15330942436927     -2.27691548150306     -0.40706129268204
  C   3.40681523939525     -1.68343832257844     -0.15523690919729
  H   0.04630749903315     -1.98977666334468     -0.60601703343787
  H   2.09671688407011     -3.33495623707678     -0.63825004599915
  H   4.30524759668312     -2.29001592214380     -0.17254313357031
  C   -1.48269927438822      0.17668008556572     -0.05693075214949
  C   -2.49892506313535      0.88085789549378     -0.71813192486742
  C   -1.83730597969501     -0.93711336453976      0.71849844117647
  C   -3.82196929564905      0.45582842000308     -0.64851598304289
  H   -2.23983370857705      1.74336222547863     -1.32351211525405
  C   -3.16266365577260     -1.35513210406088      0.79487419563984
  H   -1.07641939227037     -1.45060681024536      1.29537147300334
  C   -4.15947429352673     -0.66529513611175      0.10726503654998
  H   -4.59061724767811      1.00290543568667     -1.18290397991629
  H   -3.41840512432042     -2.21350925022116      1.40601369581289
  H   -5.19057212316758     -0.99449542878562      0.16542836375480
  N   2.50047906549807      1.81115456217221      0.28685557804603
