27
Coordinates from ORCA-job mp2_opt
  C   1.34472931632999      2.57377646021083      0.15485791125739
  C   2.28476031721335      0.49988848906661      0.20537344694749
  C   1.05461828148912     -0.13304508703251     -0.17375391766768
  C   -0.12224295537337      0.67787484599632     -0.29059334454218
  C   0.07930202766024      2.04398089055236     -0.14658070104925
  H   4.34544700046042      0.23896288182860      0.70872732895480
  H   1.45944694017631      3.64906391044491      0.26598510570809
  C   3.45081152076969     -0.28004117282877      0.38315451183572
  C   1.11680713449332     -1.50260275878670     -0.54095777311963
  H   -0.75230025237682      2.73516284342420     -0.17979710650406
  C   2.28106664542864     -2.22795129240374     -0.40018507193487
  C   3.44985115937273     -1.62672809967856      0.10440330670943
  H   0.25839844493533     -1.97251897801945     -1.00179405710952
  H   2.29813010147092     -3.26885166195628     -0.70431191625130
  H   4.35321178256890     -2.21261159134666      0.22980449433671
  C   -1.51091510102097      0.14721866926368     -0.24355079996542
  C   -2.61059767321220      1.01674717289586     -0.36661599603899
  C   -1.78784035782650     -1.14765381703880      0.23294910053638
  C   -3.91317356100611      0.58869982150242     -0.14230259138237
  H   -2.46483958558475      2.03266338708615     -0.71207398638754
  C   -3.09199963263638     -1.57641007561603      0.46589413328588
  H   -0.98034647098386     -1.81667958424968      0.49003072916320
  C   -4.16751224048726     -0.71679737789797      0.27097059737424
  H   -4.73128906064333      1.28755843572616     -0.27660607257122
  H   -3.25864137268974     -2.58425278433274      0.82976044540965
  H   -5.18255336276633     -1.05054822311689      0.45256386967143
  N   2.41981995423869      1.84286069630670      0.38501035333361
