27
Coordinates from ORCA-job mp2_opt
  C   1.59047013530414      2.54116164707471      0.07240826708803
  C   2.34485507896547      0.38005879501354      0.00951830038965
  C   1.01335195504295     -0.14134232149875     -0.00306703380706
  C   -0.06285325722830      0.78454097723080      0.02884459742873
  C   0.24246621091920      2.12937416964965      0.06249133373878
  H   4.43415786074933     -0.09676983118058     -0.00995627461901
  H   1.82779189032564      3.60160153952819      0.10261166804181
  C   3.43517712695622     -0.51817201908499     -0.02143311532972
  C   0.81875315330051     -1.54224901717312     -0.05165884948336
  H   -0.55130350578394      2.86887654012047      0.08549763058901
  C   1.90494294632288     -2.38950638370315     -0.08248426646200
  C   3.21943338033793     -1.87722887640246     -0.06625205034797
  H   -0.19192478233015     -1.93602554659611     -0.06671275165310
  H   1.74865021259433     -3.46203674489595     -0.12063297487610
  H   4.06209694576525     -2.55914777990926     -0.09026806289597
  C   -1.46389165902899      0.31224083949386      0.01545587116392
  C   -2.09740697727498     -0.05229097375630      1.20795598066040
  C   -2.16796587614910      0.22333016845299     -1.18936425573512
  C   -3.41628359961041     -0.50075029495379      1.19436418163681
  H   -1.55036322130791      0.01792425429117      2.14269772870735
  C   -3.48668061783707     -0.22658701957357     -1.20110845201520
  H   -1.67453431618914      0.50361186494014     -2.11443962832612
  C   -4.11235398867200     -0.59044743717682     -0.01000081128555
  H   -3.90023812122651     -0.77911313766741      2.12389737531324
  H   -4.02466139998150     -0.29344245611418     -2.14011604282604
  H   -5.13801903368522     -0.94069185244436     -0.01997702528845
  N   2.62165945972134      1.71438289633525      0.04867766019303
