27
Coordinates from ORCA-job mp2_opt
  C   1.39670369352172      2.57983479794135     -0.09734147932243
  C   2.32071828756095      0.49769905845435     -0.13231040229028
  C   1.05671069703187     -0.13752774302569      0.11318944631342
  C   -0.11904903150424      0.68378803511427      0.16251115222720
  C   0.10616218497505      2.05170909271070      0.06557039984607
  H   4.41452685315336      0.23810429069044     -0.46918103914462
  H   1.52819952224640      3.65682840308648     -0.16478852247088
  C   3.49256624917329     -0.28588780532503     -0.24323969580651
  C   1.08143376094079     -1.52154248603901      0.42712743648355
  H   -0.72278318071748      2.74680102268755      0.03073186382488
  C   2.24834838927689     -2.25236582140471      0.35292597391525
  C   3.45967358330115     -1.64314569877104     -0.02527972011374
  H   0.18717120623987     -2.00296752394828      0.79670477474482
  H   2.23243707350815     -3.30522818173037      0.61258263175892
  H   4.36638934777786     -2.23250647259561     -0.10001186061090
  C   -1.50891681055212      0.19209916267044     -0.01406743369338
  C   -1.82150467274496     -1.13558672435097     -0.35314493210054
  C   -2.58944940693705      1.03065105968467      0.32159693001136
  C   -3.14116203478928     -1.57173069589382     -0.44071837017765
  H   -1.04040062408534     -1.81071987986436     -0.67054870670007
  C   -3.90614083391441      0.59381102199794      0.24180808870001
  H   -2.40728016591088      2.03618234798471      0.67902894991955
  C   -4.19433369441279     -0.71510776088895     -0.13761630106716
  H   -3.34021907937871     -2.59412783299138     -0.74240363794134
  H   -4.70873131122375      1.27495466788402      0.50176794518755
  H   -5.22043711296102     -1.05901499546649     -0.19671679645423
  N   2.48277011042465      1.84461366138879     -0.24920069503884
