27
Coordinates from ORCA-job mp2_opt
  C   1.57200576900113      2.53982991918548     -0.13495341278018
  C   2.34532774966880      0.38776302530012     -0.01719523890222
  C   1.01848491984682     -0.14531193906759      0.00898077263084
  C   -0.06594499489361      0.76968938834419     -0.05240979681530
  C   0.22794446703719      2.11626797261693     -0.11610907397328
  H   4.43889427992606     -0.06866006482376      0.01405861072937
  H   1.79989068799298      3.60125535505252     -0.19176239719516
  C   3.44397861983826     -0.49907548034393      0.03812088829259
  C   0.83754358445955     -1.54588209239035      0.10090215744678
  H   -0.57249386317238      2.84760437317430     -0.16000933131874
  C   1.93155013583162     -2.38181094049533      0.15583009302693
  C   3.24118539684852     -1.85825327723422      0.12184026145112
  H   -0.16914957122047     -1.94870629006681      0.13131471082367
  H   1.78508690834534     -3.45401240312414      0.22737310074483
  H   4.09025347934880     -2.53127155852359      0.16406611881784
  C   -1.46427098219404      0.29139459907396     -0.02547349082866
  C   -2.06112240317200     -0.21101344174870     -1.18677552298126
  C   -2.21121876612016      0.35711351556847      1.15487484529321
  C   -3.38396590339528     -0.64650470263386     -1.16493502423224
  H   -1.48252404852645     -0.25680328455223     -2.10393199781505
  C   -3.53352529832398     -0.08194194044452      1.17548056078311
  H   -1.74741722019137      0.74789381925806      2.05497034712940
  C   -4.12187666577527     -0.58423813067030      0.01618928470137
  H   -3.83960500241050     -1.03114088511623     -2.07058626962625
  H   -4.10395512431157     -0.03049331507869      2.09608320275230
  H   -5.15091287864814     -0.92430899809506      0.03256544574673
  N   2.61039872421017      1.72297377683531     -0.09102484390176
