27
Coordinates from ORCA-job mp2_opt
  C   1.58382378157531      2.53695352351758     -0.18242419553875
  C   2.34358849566715      0.38275193134671     -0.02369894328730
  C   1.01359077525125     -0.14279862161417      0.00989733915108
  C   -0.06537502992157      0.77772682981528     -0.07380334433173
  C   0.23762175192849      2.12145398277131     -0.15894543260174
  H   4.43465950013346     -0.08259692415230      0.02157000036662
  H   1.81822174434841      3.59575373895807     -0.25851775361381
  C   3.43779904010209     -0.50800858693008      0.05326147913654
  C   0.82650967987312     -1.53985842396062      0.13776520614658
  H   -0.55829072938908      2.85649139855742     -0.22024390261454
  C   1.91644096617448     -2.37944781931058      0.21498579719470
  C   3.22867285016903     -1.86381171269156      0.16863851528701
  H   -0.18154047154372     -1.93780977546234      0.18043355871340
  H   1.76426249746459     -3.44857023882894      0.31500303415487
  H   4.07444863389589     -2.53966836327887      0.22801895549565
  C   -1.46683049959459      0.31145643274107     -0.04360935300280
  C   -2.24227350879214      0.48136300779243      1.10793236501368
  C   -2.02601597564002     -0.32477184898193     -1.15748612525723
  C   -3.56065382169411      0.03170263935643      1.14092900208136
  H   -1.80367413968735      0.96335700464535      1.97592207694179
  C   -3.34533932241286     -0.76956088246705     -1.12414567441191
  H   -1.42245562891254     -0.46128301731578     -2.04924172233034
  C   -4.11472114770819     -0.59321796797709      0.02528373969305
  H   -4.15359183011091      0.16660614684950      2.03854064309628
  H   -3.77283595620414     -1.25367648397402     -1.99512511775753
  H   -5.14077476122684     -0.94166087751246      0.05120824990222
  N   2.61704610625481      1.71462990810663     -0.12292439762715
