27
Coordinates from ORCA-job mp2_opt
  C   1.44069914258510      2.56757087211609     -0.23051043858661
  C   2.32855068550429      0.46555517385766     -0.10007708005788
  C   1.03959569798526     -0.13714679126774      0.07406780552459
  C   -0.10501277043960      0.71583855923338      0.03934654644033
  C   0.13111858870479      2.07375823248510     -0.10480886123382
  H   4.43826891577111      0.14379258756350     -0.25172156392357
  H   1.60321107047182      3.63594701563005     -0.34835885069964
  C   3.48497484740832     -0.34736248680601     -0.09167886929499
  C   0.98621928573796     -1.52265839002096      0.36953053851485
  H   -0.70127908659187      2.76435010864322     -0.18568896833518
  C   2.13606454536651     -2.28184630636388      0.40064493095570
  C   3.39314310284403     -1.69975774656098      0.14346519704152
  H   0.03625870417632     -1.97992644705955      0.61530309177800
  H   2.07138540827449     -3.33733546221127      0.64127509117949
  H   4.28731988005732     -2.31259971962951      0.15870632411999
  C   -1.49506933239791      0.22556930952001     -0.02958868114863
  C   -1.83076236508559     -0.98194587626274     -0.65972349186751
  C   -2.51657613399486      0.94745749432585      0.60755180306217
  C   -3.15108197923090     -1.42137598427602     -0.69668738609688
  H   -1.06843078328507     -1.53933058342778     -1.19057471616761
  C   -3.83330233213169      0.50030482290195      0.58039047103841
  H   -2.26896396263532      1.85197884044043      1.15279399537808
  C   -4.15731506259366     -0.68782799325411     -0.07176401785486
  H   -3.39201922936934     -2.34364267424238     -1.21354572255606
  H   -4.60490829742398      1.07328180973544      1.08236748429159
  H   -5.18304340153338     -1.03745129272648     -0.09403871566478
  N   2.51924186182584      1.80485692765670     -0.26212091583669
