27
Coordinates from ORCA-job mp2_opt
  C   1.46977956449283      2.55634969967381     -0.26683624384705
  C   2.33410094606603      0.44680868982312     -0.07274676044407
  C   1.03422320427979     -0.14064027777423      0.05791548810259
  C   -0.09467846641414      0.72504684789804     -0.02372708434449
  C   0.15032740172088      2.07838184110058     -0.17370894487954
  H   4.44484986571460      0.09567786632322     -0.13666116565286
  H   1.64859079330477      3.62119677868731     -0.39289421301040
  C   3.47831566183367     -0.38093823918229     -0.01707093483207
  C   0.94316375392663     -1.53020648011153      0.31830642637601
  H   -0.67869491262986      2.77242042673425     -0.26559862789135
  C   2.08066808761470     -2.30529711656969      0.38609038882837
  C   3.35586444170962     -1.73425170755833      0.19991073335816
  H   -0.02800611271400     -1.97738558587847      0.49289449140056
  H   1.99261344397536     -3.36603118372969      0.59400833376555
  H   4.24005614850524     -2.35994958497821      0.24658115670599
  C   -1.48403401266239      0.23286142085510     -0.02655596989628
  C   -1.86855976002688     -0.85973095112114     -0.81592935051737
  C   -2.45212403091038      0.86761919774973      0.76310316061955
  C   -3.19134672359547     -1.29284712220369     -0.82622730814797
  H   -1.13576283710204     -1.33977138753168     -1.45531535575156
  C   -3.77255390578877      0.42737658448059      0.75769684448120
  H   -2.15709963897078      1.69494144708563      1.40043432074777
  C   -4.14684293565383     -0.65445279021839     -0.03714405837116
  H   -3.47687835085257     -2.12823083526268     -1.45573509740268
  H   -4.50789700743684      0.92496018817778      1.38010954144314
  H   -5.17532430377360     -0.99661200380324     -0.04324985318501
  N   2.54137568538745      1.78329027733408     -0.24033391765503
