27
Coordinates from ORCA-job mp2_opt
  C   1.41174619683966      2.57637069958427     -0.15988751518932
  C   2.32410793109307      0.48551815632360     -0.11942241163113
  C   1.04946545354404     -0.13659602145503      0.09735485160040
  C   -0.11410610245636      0.69766763633907      0.11181445253949
  C   0.11353667371603      2.06155302522167     -0.01224363351180
  H   4.42681509673540      0.20004741569629     -0.37826422895403
  H   1.55466656534382      3.65001161479936     -0.25245785095233
  C   3.49124577409784     -0.31025881881253     -0.17852810405074
  C   1.04177537505489     -1.52056673969046      0.40920704300701
  H   -0.71899954019651      2.75219652001650     -0.07408094116783
  C   2.20292917834708     -2.26299060801087      0.38082066284294
  C   3.43459413350080     -1.66515603044624      0.05078527656456
  H   0.12205841007103     -1.99134103476776      0.72912450948176
  H   2.16693666904727     -3.31638328905572      0.63612599291292
  H   4.33743965555206     -2.26412594598026      0.01507090695149
  C   -1.50385957234117      0.20682441307674     -0.02424850360703
  C   -1.81785311750544     -1.08259495217103     -0.48356233725632
  C   -2.56540427343528      1.00293269126962      0.44249494731920
  C   -3.13781690353141     -1.52090398632115     -0.54929128498358
  H   -1.04024704156911     -1.71212180183620     -0.89463351840488
  C   -3.88202569294370      0.56117655932579      0.38555543842249
  H   -2.35805088940730      1.97010809032096      0.88519073940973
  C   -4.17804933276022     -0.70707133827056     -0.10962282499856
  H   -3.34928923191831     -2.50912566370796     -0.94242839274810
  H   -4.67653781557019      1.20211952737689      0.75095107059925
  H   -5.20375793208234     -1.05461203798762     -0.15282004243735
  N   2.49651133277435      1.82937191916260     -0.25836030175825
