27
Coordinates from ORCA-job mp2_opt
  C   1.49855593822625      2.54605035378219     -0.27512024983317
  C   2.33888394081863      0.42834758299595     -0.05320258280743
  C   1.03050702529937     -0.14512743675831      0.03913431784936
  C   -0.08496299069433      0.73181016530682     -0.06640895714520
  C   0.17126014361265      2.08231389295076     -0.20872022207112
  H   4.44678334788188      0.05001133323071     -0.05089058467472
  H   1.69145402312606      3.60881769518693     -0.39807410748277
  C   3.47032317803754     -0.41386376535470      0.03304281525569
  C   0.90918741752192     -1.53814733181286      0.26213549668021
  H   -0.65165362397896      2.78389542729389     -0.29999699949425
  C   2.03435016234048     -2.32862205059678      0.35328876644790
  C   3.32217360670219     -1.76837038061772      0.22716856195464
  H   -0.07633508323665     -1.97424818568705      0.37880066687774
  H   1.92764826562384     -3.39338644040617      0.52943787375033
  H   4.19646373252813     -2.40597249195308      0.29513081069652
  C   -1.47504990527884      0.24157377495178     -0.03221049199762
  C   -2.38071323980465      0.76235919652845      0.89956006092860
  C   -1.92111978379325     -0.71518783697210     -0.95315725917533
  C   -3.70443465914315      0.32978444032748      0.91504516834448
  H   -2.03491890544124      1.49511810811690      1.62164420551753
  C   -3.24649427910317     -1.14062515761498     -0.94070920824479
  H   -1.22803541136491     -1.10628866500699     -1.69091583207992
  C   -4.14093613824078     -0.62102505810068     -0.00570491485233
  H   -4.39463965983006      0.73471766505690      1.64665646981491
  H   -3.58315077970018     -1.87270268896586     -1.66620322292720
  H   -5.17215237308460     -0.95482769504500      0.00422844170107
  N   2.56192205097584      1.76333354916351     -0.21408202303314
