27
Coordinates from ORCA-job mp2_opt
  C   1.49859560863789      2.54595673184307      0.27559841084461
  C   2.33889277335961      0.42827827944324      0.05332207347720
  C   1.03050809845337     -0.14515617812505     -0.03914700574144
  C   -0.08494936769311      0.73178005181003      0.06653083505455
  C   0.17129574003247      2.08225428774590      0.20909256377244
  H   4.44678538501514      0.04991319791526      0.05100986961359
  H   1.69151165959734      3.60869837278008      0.39874569004563
  C   3.47032194267777     -0.41393536167870     -0.03303569545047
  C   0.90916893082836     -1.53813579531086     -0.26239763634737
  H   -0.65160654908120      2.78383493643081      0.30048371022794
  C   2.03432186105407     -2.32861210170452     -0.35365010474008
  C   3.32215310548331     -1.76840529046582     -0.22739715245138
  H   -0.07635946720212     -1.97419461931479     -0.37917072015984
  H   1.92761774980769     -3.39334511024024     -0.52998909420514
  H   4.19642709029799     -2.40602084486435     -0.29543945306322
  C   -1.47504581405760      0.24157975420502      0.03220926806723
  C   -2.38067895348648      0.76257006138502     -0.89947768452357
  C   -1.92115843554808     -0.71534400418018      0.95296555415147
  C   -3.70440994960425      0.33002909786188     -0.91507037070804
  H   -2.03484945919816      1.49545788975410     -1.62141416970379
  C   -3.24654292311639     -1.14075061194958      0.94040890843752
  H   -1.22809779478498     -1.10660732040681      1.69066055706103
  C   -4.14095411355948     -0.62094731817381      0.00549003151233
  H   -4.39459252383556      0.73512330165624     -1.64661404677174
  H   -3.58323072974505     -1.87296064942141      1.66575485297506
  H   -5.17217843629176     -0.95472283442998     -0.00452759052389
  N   2.56195257195919      1.76323207743546      0.21444139914940
