27
Coordinates from ORCA-job mp2_opt
  C   1.55490409579550      2.54101278616177     -0.19259767143518
  C   2.34414449230296      0.39796577461247     -0.02668407696802
  C   1.02137998185702     -0.14488035322775      0.01319998927740
  C   -0.07009382648323      0.76042765671160     -0.07123919475748
  C   0.21438762569159      2.10776223331724     -0.16328582207647
  H   4.44131025592633     -0.03991468499124      0.01408460274233
  H   1.77478943732807      3.60253405930127     -0.27399498115643
  C   3.45013667232103     -0.47804847546932      0.05059691032875
  C   0.85279181510481     -1.54371972555714      0.14681439969852
  H   -0.59153943444933      2.83172614103406     -0.22542960891224
  C   1.95376586093697     -2.36875542550235      0.22401913705645
  C   3.25898695126446     -1.83601219476515      0.17189600621791
  H   -0.15005126970972     -1.95427861856569      0.19376462819678
  H   1.81598927411276     -3.43940262589212      0.32841344147361
  H   4.11371567663658     -2.50049070517571      0.23144503641347
  C   -1.46586452613130      0.27771326813290     -0.03444033982429
  C   -2.02772730575057     -0.35011441870756     -1.15172822009158
  C   -2.24977367604580      0.47150017206561      1.10754768072675
  C   -3.35169669966654     -0.78121409520274     -1.12401644722086
  H   -1.42148583469147     -0.49380103090346     -2.04053887266771
  C   -3.57282105528211      0.03550572267764      1.13493108037191
  H   -1.81305079555571      0.95824510975763      1.97382916828529
  C   -4.12621943502958     -0.59065249196295      0.01966134075328
  H   -3.78003008799134     -1.26215408904982     -1.99633782709704
  H   -4.17114897296456      0.18545122690487      2.02656070469383
  H   -5.15627959046881     -0.92739879403191      0.04079215445326
  N   2.59930237094200      1.73293157832787     -0.13231921848224
