27
Coordinates from ORCA-job mp2_opt
  C   1.47557634039559      2.55011275890842     -0.28012805789556
  C   2.33682715938693      0.44054472376294     -0.06433170906245
  C   1.03497378380334     -0.14383937180552      0.05167621735347
  C   -0.09030930517010      0.72279988712581     -0.04300684668758
  C   0.15375053127000      2.07501078617530     -0.19475260691948
  H   4.44766889548145      0.08185519361117     -0.09665022094104
  H   1.65725014131161      3.61406829647230     -0.40969566832919
  C   3.47738323998844     -0.39075014418305      0.00765999173097
  C   0.93199645104046     -1.53534655428487      0.29394612238546
  H   -0.67552460030571      2.76909626405893     -0.28519764921570
  C   2.06582368321361     -2.31465344734624      0.37324155227883
  C   3.34582355302987     -1.74479194328248      0.21600485374182
  H   -0.04601610316475     -1.97951178150328      0.43840657938130
  H   1.97183628669954     -3.37787820451122      0.56519438411153
  H   4.22706956700053     -2.37375727248740      0.27366008409330
  C   -1.47698228813624      0.22353604018967     -0.01414581461233
  C   -2.41349594354473      0.80045595571332      0.85247487457389
  C   -1.89739939384623     -0.78132916101434     -0.89569875092171
  C   -3.73777063420487      0.37018144108992      0.85023838452245
  H   -2.09043894908906      1.57259754299297      1.54334022687340
  C   -3.22362814891670     -1.20393524826603     -0.90223715838142
  H   -1.18474241051402     -1.20975782449376     -1.59270484424498
  C   -4.14664087632030     -0.63226189617856     -0.02746202146147
  H   -4.45030201097885      0.81780308436992      1.53405546627157
  H   -3.53866411975953     -1.97416686004115     -1.59729899959236
  H   -5.17845418282164     -0.96433302230363     -0.03206125796776
  N   2.54630033415136      1.77651875723085     -0.23424913108497
