27
Coordinates from ORCA-job mp2_opt
  C   1.50294616620252      2.54518055031682     -0.27155766325402
  C   2.33980858047755      0.42598475429608     -0.04890723001851
  C   1.03021314558452     -0.14566196805658      0.03352887809660
  C   -0.08318748014658      0.73292123419101     -0.07400850239546
  C   0.17440028646652      2.08331610292974     -0.21165918434640
  H   4.44710049533652      0.04334359776386     -0.03230372880309
  H   1.69797780014791      3.60792450518850     -0.39130285413689
  C   3.46899824355612     -0.41866200713774      0.04233989504229
  C   0.90364721572719     -1.53991682731213      0.24459624168448
  H   -0.64754832563078      2.78631666571202     -0.30062775926736
  C   2.02662216983250     -2.33304404096152      0.33932473887115
  C   3.31645979722460     -1.77388809163073      0.22834542065825
  H   -0.08432273206557     -1.97438643135801      0.34703416281132
  H   1.91692777079534     -3.39904142539174      0.50589909125732
  H   4.18899836472167     -2.41349577219386      0.29992883812476
  C   -1.47299695875056      0.24156155354532     -0.03297001336097
  C   -1.93634154633401     -0.67503541063626     -0.98535412588361
  C   -2.36215748717035      0.72810159355591      0.93217670564598
  C   -3.26232812939333     -1.09853458960563     -0.96822798312969
  H   -1.25498132747225     -1.03916631049379     -1.74756118002671
  C   -3.68672973999523      0.29795925327526      0.95158365992611
  H   -2.00318572616612      1.43293702494543      1.67534288928359
  C   -4.14024618002109     -0.61478243212435      0.00108106749483
  H   -3.61260898622901     -1.80041834598183     -1.71673986121528
  H   -4.36445599538230      0.67575295235703      1.70889890228591
  H   -5.17208299260393     -0.94652288994385      0.01428874808436
  N   2.56508257128817      1.76118375475104     -0.20509515342897
