27
Coordinates from ORCA-job mp2_opt
  C   1.59053175157791      2.54110576580352     -0.07309202318103
  C   2.34487755133469      0.38000295686689     -0.00968381489030
  C   1.01336450561101     -0.14136782414412      0.00309055847809
  C   -0.06282281263000      0.78452790312307     -0.02900775657434
  C   0.24252102329937      2.12934689860942     -0.06301225852171
  H   4.43417023057627     -0.09684307185349      0.00982210959381
  H   1.82787763562408      3.60153248678377     -0.10357893209730
  C   3.43518760303784     -0.51823735379582      0.02144709305176
  C   0.81874358555269     -1.54225904697308      0.05204508889361
  H   -0.55124170990209      2.86885182717258     -0.08617459723370
  C   1.90492128526064     -2.38952667588071      0.08302992616200
  C   3.21942217934032     -1.87727790314853      0.06661477548837
  H   -0.19193852237912     -1.93602028142613      0.06723792240357
  H   1.74861725471571     -3.46204619228622      0.12144849855600
  H   4.06206478028736     -2.55921794084571      0.09076770693092
  C   -1.46386910126716      0.31225565873217     -0.01547976201514
  C   -2.09741124596400     -0.05252795929892     -1.20788841918678
  C   -2.16792108694708      0.22361939485586      1.18937399083185
  C   -3.41629342552396     -0.50096349040094     -1.19416947116058
  H   -1.55038391674903      0.01747249300400     -2.14265576159069
  C   -3.48664192789761     -0.22627709553730      1.20124480449319
  H   -1.67446046561620      0.50410030995159      2.11437375503276
  C   -4.11234269901716     -0.59038914829558      0.01022853385874
  H   -3.90027746159174     -0.77952268265657     -2.12362883523858
  H   -4.02459704840671     -0.29291749568016      2.14028303401178
  H   -5.13801331829856     -0.94061604266185      0.02029164861040
  N   2.62170635597253      1.71431250998226     -0.04919881470672
