27
Coordinates from ORCA-job mp2_opt
  C   1.39445671011547      2.56445539043578     -0.26346144151060
  C   2.32332737940054      0.48058241183264     -0.11591554134153
  C   1.04994419513638     -0.13766464679318      0.10352631538473
  C   -0.10809958586569      0.69510712381858      0.08619588995802
  C   0.09632312726269      2.05338234541373     -0.08816241158670
  H   4.43354150559453      0.18460897595307     -0.31505591631170
  H   1.53512379974168      3.63280658170273     -0.40687263738101
  C   3.49084462758027     -0.31614817598880     -0.12468720997365
  C   1.01853184591765     -1.52166173498231      0.40672030692608
  H   -0.75017352019642      2.72825477310616     -0.15246308400555
  C   2.17876974533530     -2.26531052909498      0.41632700577194
  C   3.42191648478249     -1.66703843489714      0.12779485922454
  H   0.07708850822178     -1.98888675783449      0.66852252356005
  H   2.13437623662426     -3.32077756572834      0.66146490883790
  H   4.32432856986362     -2.26787342411211      0.12818902614945
  C   -1.48457649203549      0.16390293398732      0.08748207800668
  C   -2.52305480610232      0.89861227151666      0.67858094189965
  C   -1.81967452694912     -0.97607950004176     -0.65914533222262
  C   -3.84420844737836      0.47418771580418      0.58167603710187
  H   -2.28447368221779      1.78397695699398      1.25865430292641
  C   -3.14326455684232     -1.39336360607104     -0.76462475832632
  H   -1.04508129863664     -1.51088445514359     -1.19630528440222
  C   -4.16074141009659     -0.67571748763554     -0.13908674287903
  H   -4.62823978181520      1.04592154276914      1.06543727810647
  H   -3.38060608724473     -2.27324007965789     -1.35215703228595
  H   -5.19050168430019     -1.00440005230021     -0.21949336657099
  N   2.48528714410422      1.81989442694741     -0.30716671505594
