27
Coordinates from ORCA-job mp2_opt
  C   1.40396228785539      2.57856275012011      0.13036643330251
  C   2.32259597300610      0.49182672756270      0.12526919828888
  C   1.05299412404708     -0.13669133722868     -0.10530980096190
  C   -0.11672254664414      0.69117972490961     -0.13664921577948
  C   0.10943407257210      2.05705111589226     -0.02383992013759
  H   4.42136127083367      0.21885257944518      0.42197247808550
  H   1.54100704997136      3.65391354281388      0.21128007113517
  C   3.49227602416930     -0.29811527600686      0.20949083219101
  C   1.06107306290390     -1.52061247191588     -0.41897743595206
  H   -0.72169673116373      2.74944074075689      0.02749651889190
  C   2.22517813731389     -2.25751578264289     -0.36821885873863
  C   3.44718782247164     -1.65421511301211     -0.01437723429951
  H   0.15335844190849     -1.99637213806003     -0.76351617441840
  H   2.19892755984783     -3.31064435358318     -0.62583784131841
  H   4.35205948925427     -2.24861121699326      0.04045190942660
  C   -1.50642784561225      0.19998358111877      0.02062026335096
  C   -1.81830418979717     -1.11018304681977      0.42054570876397
  C   -2.57841628046786      1.01759197458487     -0.38366187594875
  C   -3.13806100638578     -1.54784317220790      0.49635572786017
  H   -1.03827947987027     -1.76250094350103      0.78723649760088
  C   -3.89503581114994      0.57795286359129     -0.31593392099708
  H   -2.38392852003548      2.00404111145381     -0.78666025072747
  C   -4.18592190066918     -0.71193623042734      0.12277475156795
  H   -3.34241623598587     -2.55409950249964      0.84504972628763
  H   -4.69438084351476      1.23923026199903     -0.63115849844457
  H   -5.21172894712291     -1.05812048171433      0.17329413485644
  N   2.48980802226432      1.83723109236451      0.25359277611430
