27
Coordinates from ORCA-job mp2_opt
  C   1.56792215490537      2.53892887427340      0.21773733941436
  C   2.34218772577200      0.39238148654068      0.02901432051856
  C   1.01588000325342     -0.14244558988712     -0.01375719425610
  C   -0.06958802923410      0.76939239884049      0.08712699897562
  C   0.22505875496428      2.11420188256134      0.18952140656496
  H   4.43668411512271     -0.05556374347262     -0.02035542682887
  H   1.79496703172310      3.59818489643295      0.30843481724751
  C   3.44339559447013     -0.48850506442163     -0.06091448018754
  C   0.84081339882920     -1.53830644959562     -0.17000609514251
  H   -0.57589313025372      2.84254619704473      0.26425286507378
  C   1.93736251663356     -2.36791257854509     -0.26062557198304
  C   3.24544408225213     -1.84364717701324     -0.20026532846273
  H   -0.16334315983265     -1.94394162007177     -0.22624853710860
  H   1.79324797405508     -3.43584096509302     -0.38282450862451
  H   4.09660572217691     -2.51173006901370     -0.26951095377546
  C   -1.46891434515347      0.29999919826472      0.05205102454787
  C   -2.27805838118080      0.57915998489469     -1.05430695906271
  C   -1.99564438033330     -0.44407125955347      1.11423296364511
  C   -3.59670517216707      0.13111859843306     -1.09267324624384
  H   -1.86440197265400      1.14280675049110     -1.88452709838709
  C   -3.31514256862181     -0.88720985550052      1.07598411776574
  H   -1.36714840054551     -0.66295513983024      1.97166770789961
  C   -4.11777919246016     -0.60157702805878     -0.02787994807756
  H   -4.21540088142868      0.35035399963106     -1.95558546343966
  H   -3.71748955893586     -1.45389080659839      1.90821859718512
  H   -5.14427058820128     -0.94847321085946     -0.05784900244359
  N   2.60665768684454      1.72441929010644      0.14788065518556
