27
Coordinates from ORCA-job mp2_opt
  C   1.54596265377889      2.54044486382265      0.24575913333311
  C   2.34137383358469      0.40376336502493      0.03574158278128
  C   1.02053454236944     -0.14426243618277     -0.01726827899047
  C   -0.07438806395147      0.75598869202067      0.09165797277130
  C   0.20790143112430      2.10271219912509      0.20883712297569
  H   4.44054566381198     -0.02024905373415     -0.01366679148692
  H   1.76222510160969      3.60076141653281      0.34950171849670
  C   3.45235736102880     -0.46380664080285     -0.06313010090707
  C   0.86212503910868     -1.53942463839486     -0.19697084338069
  H   -0.60031489499715      2.82208391402065      0.29236182653210
  C   1.96790457020582     -2.35558728133356     -0.29750949332595
  C   3.27001483089797     -1.81872400428116     -0.22350010921530
  H   -0.13667631233873     -1.95564595218897     -0.26689861716291
  H   1.83539949309310     -3.42260749124759     -0.43916921581085
  H   4.12866591192448     -2.47624890852347     -0.30065948531119
  C   -1.47080882623972      0.28086652691509      0.05353674003347
  C   -2.31148593094154      0.65446341871126     -1.00060429782486
  C   -1.97063124511916     -0.54854812144554      1.06474379450216
  C   -3.63208074153209      0.21278184807977     -1.03871641350649
  H   -1.91981537271061      1.28516880463780     -1.79233232853565
  C   -3.29242775947533     -0.98433667676370      1.02767809775042
  H   -1.32039122746332     -0.83671804934705      1.88460517769304
  C   -4.12531184236138     -0.60631875612776     -0.02488520057083
  H   -4.27438765609847      0.50517784137887     -1.86178154354535
  H   -3.67340426308796     -1.61674503355734      1.82172582831393
  H   -5.15362384782698     -0.94786895640569     -0.05395953909779
  N   2.59271255160607      1.73670511006687      0.17112826348913
