27
Coordinates from ORCA-job mp2_opt
  C   1.40401985159317      2.57851214427234     -0.13023940245274
  C   2.32262144985290      0.49176168302940     -0.12526197699961
  C   1.05301436935870     -0.13675369842977      0.10530985939543
  C   -0.11668611761387      0.69113847790829      0.13671607083244
  C   0.10948949246114      2.05701127823078      0.02398097782022
  H   4.42138114946466      0.21876459918674     -0.42201133685936
  H   1.54108092717414      3.65386375518725     -0.21110152427374
  C   3.49228726032732     -0.29818883928172     -0.20953719486249
  C   1.06108698316754     -1.52068869672666      0.41889795931877
  H   -0.72163503560926      2.74941561461707     -0.02727954366564
  C   2.22518624786849     -2.25760634032974      0.36807995980900
  C   3.44719643396784     -1.65430467707640      0.01425319343609
  H   0.15339553145180     -1.99650379029714      0.76342266600838
  H   2.19889400773783     -3.31074641062162      0.62564450034938
  H   4.35207456464112     -2.24868323531371     -0.04062943984655
  C   -1.50640850466114      0.19998173216930     -0.02050957123021
  C   -1.81833475849127     -1.11016368036026     -0.42047671981242
  C   -2.57835885907271      1.01761267746287      0.38382550981782
  C   -3.13810121639916     -1.54779001768111     -0.49625438424112
  H   -1.03830880218155     -1.76245647236098     -0.78720831682854
  C   -3.89498903024071      0.57800468528684      0.31613059133841
  H   -2.38383538542171      2.00405027414703      0.78683633937286
  C   -4.18592344997127     -0.71186377391940     -0.12260571954474
  H   -3.34249313763429     -2.55402802830363     -0.84497671442110
  H   -4.69431258299668      1.23928660038632      0.63139726930436
  H   -5.21174315880938     -1.05801221257181     -0.17309449832972
  N   2.48984877003637      1.83716835138973     -0.25353055343521
