27
Coordinates from ORCA-job mp2_opt
  C   1.59700990617770      2.53766008150787     -0.12964025714936
  C   2.34405199075967      0.37613529368891     -0.01587140607796
  C   1.01091423253892     -0.14137085512614      0.00677255936623
  C   -0.06235545849345      0.78702667331523     -0.05439777551242
  C   0.24801998440131      2.13008289210959     -0.11404902597581
  H   4.43204824771757     -0.10462836486828      0.01811192741038
  H   1.83776588315934      3.59638472322307     -0.18356109334830
  C   3.43220027201063     -0.52359234100966      0.03956854612851
  C   0.81366817813136     -1.53994164126110      0.09619124577346
  H   -0.54344044739406      2.87114308168067     -0.15768683338422
  C   1.89785078526669     -2.38857876792623      0.15160552498448
  C   3.21355522456635     -1.88044846896159      0.12054662523690
  H   -0.19749352552818     -1.93144207881645      0.12453895159066
  H   1.73868909450641     -3.45909250282522      0.22137618585614
  H   4.05464240319543     -2.56340429458216      0.16302590622354
  C   -1.46554109580338      0.32333486742421     -0.03176061617777
  C   -2.20721611575227      0.37266270517909      1.15269478684593
  C   -2.05621819946660     -0.19656579382087     -1.18855285052553
  C   -3.52435928247041     -0.08154020619947      1.17703289343271
  H   -1.74431422594435      0.76553574409637      2.05234560959212
  C   -3.37389694727687     -0.64724364219245     -1.16303857813008
  H   -1.47791896658164     -0.24100244105034     -2.10596591778831
  C   -4.10981531377544     -0.59161399450396      0.01967418242887
  H   -4.09175147430855     -0.03939886572103      2.09998012184888
  H   -3.82585440064798     -1.04220061336196     -2.06609517967770
  H   -5.13445007475319     -0.94456692201378      0.03921673551647
  N   2.62537632576499      1.70824073201569     -0.08628026848782
