27
Coordinates from ORCA-job mp2_opt
  C   1.60000874510110      2.54005988802110     -0.00064109205743
  C   2.34488660766960      0.37476200354909      0.00034672797915
  C   1.01109617964039     -0.14086552478477      0.00053456422422
  C   -0.06100197587136      0.79026547114894      0.00033001037387
  C   0.25014317060759      2.13410955288335     -0.00061267084614
  H   4.43206875647515     -0.11176519752202      0.00033916647709
  H   1.84201396022952      3.59987138352066     -0.00104635622470
  C   3.43120577866596     -0.52883962899996      0.00041633654984
  C   0.81000395099363     -1.54170448088048      0.00038296188805
  H   -0.54026734786673      2.87755469574059     -0.00096378075144
  C   1.89248458997955     -2.39428827314812      0.00028953182845
  C   3.20927289304563     -1.88764154428880      0.00040062131395
  H   -0.20251496634922     -1.93111422272819      0.00011048088553
  H   1.73152596631458     -3.46680808860209      0.00003989245093
  H   4.04884373066211     -2.57379395653370      0.00035541574169
  C   -1.46368445771241      0.32223894230363      0.00017103099343
  C   -2.13321668055229      0.09871216730047     -1.20704688948869
  C   -2.12868449523031      0.08391499465567      1.20709005051216
  C   -3.45101697589020     -0.35366951350959     -1.20632077765255
  H   -1.61477956676019      0.27987423690619     -2.14310847833281
  C   -3.44650450983340     -0.36836136748414      1.20580096526884
  H   -1.60683006505620      0.25390797642128      2.14335687062340
  C   -4.10912313806467     -0.58924148445571     -0.00042760936372
  H   -3.96278897312560     -0.52330386327843     -2.14706358058519
  H   -3.95483153775519     -0.54924923039062      2.14631918297302
  H   -5.13384776770370     -0.94233143810825     -0.00064571370480
  N   2.62757112838669      1.70843550226389     -0.00008586107613
