27
Coordinates from ORCA-job mp2_opt
  C   1.45375340695587      2.55421757638171      0.27869244354142
  C   2.33449657953958      0.45198974838777      0.07481805385342
  C   1.03931208372242     -0.14262973935433     -0.06404916856290
  C   -0.09527600023823      0.71443823768888      0.01668653263226
  C   0.13749737569277      2.06841879756008      0.17494843595582
  H   4.44726843321309      0.11178921494679      0.14349224357100
  H   1.62462122954887      3.61948269293995      0.41210745604024
  C   3.48340156891178     -0.36918058528147      0.01974019618522
  C   0.95456692313306     -1.53284524224317     -0.32171032168119
  H   -0.69737739344662      2.75599283593926      0.26237753386291
  C   2.09635852862755     -2.30181051068830     -0.38649882340052
  C   3.36812730083963     -1.72294409142835     -0.19931370118459
  H   -0.01536902644007     -1.98462841211823     -0.49302363392280
  H   2.01492276507070     -3.36366610004990     -0.59131127563141
  H   4.25575425830224     -2.34387116990701     -0.24464979213777
  C   -1.47890771716733      0.20677072210360     -0.00601260156846
  C   -2.44421504470441      0.83311100365321     -0.80490716976705
  C   -1.87575158787342     -0.84077745677939      0.83655410351823
  C   -3.76879208050953      0.40548546900795     -0.78249410375098
  H   -2.14305586544561      1.63997305279047     -1.46526973264687
  C   -3.20233476630830     -1.26119718200998      0.86367671013475
  H   -1.14553945157795     -1.30220904861311      1.49277300515295
  C   -4.15214697912145     -0.64309357351791      0.05170115904719
  H   -4.50176090371190      0.89151884530148     -1.41671867605760
  H   -3.49668879432289     -2.06563794579704      1.52840909931535
  H   -5.18421771595163     -0.97372580718861      0.07230348945560
  N   2.53104587326179      1.78908066827562      0.25044253804576
