27
Coordinates from ORCA-job mp2_opt
  C   1.34158411993612      2.57767269787935      0.16041807623833
  C   2.29426074212320      0.50709920381950      0.17797820093008
  C   1.05825220377571     -0.13067594797501     -0.17063667574744
  C   -0.12041507805075      0.67735084705010     -0.26923043622621
  C   0.07213324428173      2.04326199603932     -0.11616911100582
  H   4.36839869279096      0.25095612761326      0.62944152682816
  H   1.45370980016812      3.65252044435237      0.27786426954916
  C   3.46598157648506     -0.26978795231001      0.32928361606162
  C   1.10879491710837     -1.50432272427045     -0.52281250109843
  H   -0.76824299970630      2.72535518964778     -0.12452263460907
  C   2.27675770280016     -2.22722550947994     -0.40478881689092
  C   3.45855806391815     -1.61860149308971      0.06027213172128
  H   0.23391048191338     -1.97948987175487     -0.94660193359734
  H   2.28699757244179     -3.27235597162370     -0.69416017003864
  H   4.36554554517398     -2.20264296708079      0.16646938331930
  C   -1.50271289437328      0.13757390606156     -0.22290065431834
  C   -2.60502067465991      0.98598139480522     -0.43158971623981
  C   -1.77450078708370     -1.12875256303907      0.32602839053932
  C   -3.90841300082135      0.55829889744913     -0.21038022008901
  H   -2.45348712993387      1.97750826839460     -0.84114806915028
  C   -3.07959794989386     -1.55557036398889      0.55646966865991
  H   -0.96258525903498     -1.76961319491120      0.63869635041871
  C   -4.15799041885694     -0.72079883316924      0.28180412496369
  H   -4.73129372621588      1.23516055013092     -0.41113970401835
  H   -3.24700488891011     -2.53978670258106      0.97966495593322
  H   -5.17364018786174     -1.05379669642233      0.46128911579723
  N   2.42673433248591      1.85083226845317      0.35572883206964
