19
Coordinates from ORCA-job opt
  C   0.96338854756779      1.02491445168172      0.17002185235288
  N   -0.15341834038867      0.89123523737064     -0.60796098018950
  C   1.59364261719360      2.33833465975431      0.21658531471577
  C   1.41500697578513     -0.05030606634190      0.88557113297897
  C   -0.89876381580350     -0.28141887314842     -0.79348020820466
  H   -0.54216557181455      1.70737426891969     -1.06928329719927
  C   -0.38945090429684     -1.39484531741618     -0.02788562590222
  O   -1.87898529358723     -0.27838192324392     -1.53321111928325
  C   0.70896144713620     -1.27226628528937      0.77801094483366
  H   -0.93144946227331     -2.32782680902488     -0.11495971901569
  H   1.05257905607265     -2.13304668678222      1.34176398329498
  H   2.29325823238689      0.06232555130918      1.50511254333885
  N   1.99430692814396      3.00493932305184     -0.90896208819874
  N   1.95419418767329      2.99605516329373      1.31217755880850
  C   2.62984554950224      4.14996444766754     -0.51167821579664
  H   1.89862838139966      2.67504885366490     -1.85874135403993
  C   2.58929751611810      4.12235820416489      0.86596646613346
  H   3.03674943994331      4.85687071101561     -1.21551810520187
  H   2.97727450924128      4.85807208935282      1.55246991657471
