19
Coordinates from ORCA-job opt
  C   0.95775996621120      1.02606004050772      0.15830514677120
  N   -0.19602658484730      0.90568723306027     -0.56581985438220
  C   1.58438301512057      2.34534505508078      0.20521808551624
  C   1.44661123777406     -0.06290012626103      0.82604923957272
  C   -0.94883027355699     -0.26380289312352     -0.73743153667931
  H   -0.59859387406790      1.72969244898524     -1.00077963894760
  C   -0.39982387364642     -1.39204213987423     -0.02162960971781
  O   -1.96392879261205     -0.24988538819018     -1.42815234593917
  C   0.73864446708351     -1.28533119068054      0.72822566361354
  H   -0.94441515595320     -2.32424535284906     -0.10103217129265
  H   1.11169582770129     -2.15710698370248      1.25514431605094
  H   2.35266461697055      0.03824204836260      1.40640442816699
  N   2.10418905456408      2.95433691991662     -0.90346936354491
  N   1.81956893246037      3.06407735281780      1.29624048032874
  C   2.68636666079187      4.12589940251860     -0.50257174921765
  H   2.09604453366094      2.58071864525094     -1.84168176714229
  C   2.49537836011697      4.17167433005211      0.86174105260149
  H   3.16638856514811      4.79741615536197     -1.19489743681332
  H   2.80482531708034      4.94556244276638      1.54613806105506
