19
Coordinates from ORCA-job opt
  C   1.04229761738730      0.97736133159031      0.08987554476459
  N   0.52006424201349      0.51658255679594     -1.08629760207606
  C   1.79783539086584      2.23250426189271      0.03748481084579
  C   0.84907937288658      0.25766955114026      1.23629123855758
  C   -0.23003744891159     -0.65405825644612     -1.25776838432476
  H   0.70915045510717      1.02634838205872     -1.94356502464524
  C   -0.41346634700848     -1.38644974373440     -0.02520440060415
  O   -0.65202240602079     -0.96354272107613     -2.36815964816325
  C   0.10831119842942     -0.94776947005023      1.15932142430531
  H   -0.97962140156910     -2.30679919894412     -0.09159657419281
  H   -0.04867734110901     -1.53281890290157      2.05924885876489
  H   1.26927004289093      0.61898010367108      2.16429079031562
  N   1.19055868239016      3.45614133884863      0.00965401083980
  N   3.11909564152482      2.35720440618316      0.03453879124330
  C   2.17143237604633      4.40984821812221     -0.01411123538652
  H   0.19435562513040      3.61983194261519      0.02924704031881
  C   3.35564620420532      3.70503336292882      0.00079986300130
  H   1.95028230721439      5.46400252845096     -0.03580460735443
  H   4.35934678852680      4.09933030885456     -0.01224489620974
