19
Coordinates from ORCA-job opt
  C   0.95095320022634      1.02512164326741      0.01367114345951
  N   -0.40821311047458      1.01989058729072     -0.02189798899923
  C   1.54849696486971      2.34582245227179      0.01382936380604
  C   1.63413780810385     -0.16501991139502      0.04396576102585
  C   -1.22890477677708     -0.11228967198126     -0.02795004189334
  H   -0.87468541542384      1.92534100707391     -0.03419971150422
  C   -0.48148004478817     -1.35064029350855     -0.00266943182012
  O   -2.45016296754541      0.00188802338868     -0.05535603273739
  C   0.88524244174511     -1.36495180561987      0.03226001764511
  H   -1.06092690001963     -2.26493348411306     -0.01067999596392
  H   1.40856670535656     -2.31505985594788      0.05401851511190
  H   2.71463108415846     -0.18529926514314      0.08592904343085
  N   2.88390479569424      2.60401308223597     -0.05116745354046
  N   0.84811221834226      3.47641818398114      0.06705669027676
  C   3.04793840869796      3.96337505833273     -0.03579986383915
  H   3.62255973011139      1.92035808077754     -0.11712506542217
  C   1.77223059427860      4.48115446502198      0.03843042636390
  H   4.02018625857711      4.42547044786545     -0.07851430070730
  H   1.48031200486710      5.51874325620144      0.07219992530737
