19
Coordinates from ORCA-job opt
  C   0.95030263948291      1.02625889789447      0.04390343525106
  N   0.92155154094254      0.29561285680421     -1.10253565688212
  C   1.68026861893241      2.27513212308673     -0.05087597643150
  C   0.30676155570614      0.56089682674294      1.16324869488924
  C   0.29159855365089     -0.94091952184291     -1.27611001088455
  H   1.43162443951384      0.66554443127542     -1.90255757461520
  C   -0.39154544920987     -1.39774586012604     -0.08543596363403
  O   0.34542055159796     -1.52304374505300     -2.35468587694890
  C   -0.37727152149225     -0.67429522408091      1.07457482919277
  H   -0.90990259876307     -2.34512407266426     -0.15990982951481
  H   -0.89476177559164     -1.05636838308626      1.94823944691847
  H   0.34513393775829      1.11197312333949      2.09311606863223
  N   1.60533202721929      3.29220857457726      0.85163915608806
  N   2.48515762868682      2.59375667224739     -1.06150738398810
  C   2.40678842854787      4.30790686725754      0.40340550758277
  H   1.02844031440398      3.31296581735465      1.67902213937136
  C   2.94140034425137      3.85044542372430     -0.78235405574027
  H   2.52028785428932      5.23238640274983      0.94473595109498
  H   3.62631291007319      4.36180878979914     -1.43991290038149
