19
Coordinates from ORCA-job opt
  C   0.98248233785018      1.01679935397518      0.18778901321041
  N   -0.02347765948552      0.84066710016630     -0.72105244786492
  C   1.66672263103624      2.29566333951579      0.20990679516486
  C   1.32637377712476     -0.02101842824269      1.01422119789607
  C   -0.77305938977482     -0.33014485068293     -0.91359419822181
  H   -0.37291103206847      1.62940841785604     -1.25410388727706
  C   -0.37852598749938     -1.40101561742358     -0.03136719832653
  O   -1.66635104007911     -0.35143247460586     -1.75614968780893
  C   0.61606300387565     -1.23675109904977      0.89473951599593
  H   -0.92287554961291     -2.33180495401560     -0.12533882051213
  H   0.87432773232621     -2.06483040025581      1.54634055799163
  H   2.13174890306522      0.12182156811900      1.72050328791385
  N   1.74234276444789      3.13472831104746     -0.86867791796837
  N   2.30526710465802      2.80917568634018      1.25629425602062
  C   2.48024260749678      4.22688358390122     -0.49468191792089
  H   1.44497708620650      2.92790874777628     -1.81119953540620
  C   2.81008103288001      4.00273990719889      0.82487488630305
  H   2.69377283310881      5.03557009822015     -1.17370297023452
  H   3.37569884444393      4.64503071015975      1.48119807104493
