19
Coordinates from ORCA-job opt
  C   1.06165180059833      0.97338497856200      0.11740816070583
  N   0.32306933341553      0.64768190045896     -0.98645862479421
  C   1.79968938792924      2.22461689743884      0.08745972565276
  C   1.08144644466427      0.11891107452528      1.18717906046674
  C   -0.47064681704485     -0.49789621065464     -1.14443804708714
  H   0.38918924061477      1.21729888217140     -1.82348584044322
  C   -0.43000304476076     -1.37057387381344      0.00442881877399
  O   -1.09086199278161     -0.67527287686829     -2.18945821851852
  C   0.32399539486399     -1.07268486523914      1.10684527467340
  H   -1.01278978980816     -2.28048789804540     -0.05944021627379
  H   0.33294149477645     -1.76158726659768      1.94484025327873
  H   1.66553052526965      0.38362787322016      2.05700942200204
  N   1.29245937820918      3.37555184881386     -0.45175775335743
  N   2.99471474285722      2.43823520983993      0.62640559259369
  C   2.20978274902449      4.37096498400302     -0.24567323545859
  H   0.36352873541037      3.49729373901319     -0.82903874925862
  C   3.25425830570782      3.76414085054196      0.41866369005019
  H   2.04690848205417      5.38190394679387     -0.58050508516338
  H   4.17803462899990      4.21428980583609      0.74601577215753
