19
Coordinates from ORCA-job opt
  C   0.94311925972036      1.03162960289244      0.12382208029832
  N   -0.39487441400295      1.01798299762753     -0.12066657723634
  C   1.55511498483400      2.34734082237594      0.14845869858161
  C   1.62022130771321     -0.15167984864396      0.27518341657435
  C   -1.20493629669243     -0.12042845073296     -0.20203972786872
  H   -0.86933526309956      1.91525979612294     -0.19267993198979
  C   -0.46039116895479     -1.35261505089593     -0.05742353143620
  O   -2.41245364706510     -0.01453542557485     -0.39085941051262
  C   0.88735476173993     -1.35815534102204      0.17154074469052
  H   -1.02895251939805     -2.27073247185315     -0.13160597152753
  H   1.40451132804843     -2.30475006640302      0.28725973656578
  H   2.67676689836143     -0.14880945494479      0.50716743605164
  N   2.81562191112985      2.60827608227661     -0.29846899752442
  N   0.92714963880586      3.46956642375016      0.48802877755086
  C   3.01690020195738      3.95962965458442     -0.21365350429703
  H   3.46380651073372      1.92701773170381     -0.66541768387693
  C   1.83312031849679      4.47055027744361      0.27575037099155
  H   3.94560300849876      4.42256900997611     -0.50276700006528
  H   1.59455517917317      5.50128671131712      0.48436907503020
