19
Coordinates from ORCA-job opt
  C   0.98305915654793      1.00933095292631      0.05377610473948
  N   0.89480951558484      0.31161055183134     -1.11022870705765
  C   1.71907142639517      2.25574117242135     -0.03314023082224
  C   0.37296791971356      0.52739110369486      1.18447671624031
  C   0.24243111796799     -0.91294887672674     -1.28860078880968
  H   1.38734738599190      0.68655006332319     -1.91838681158146
  C   -0.40761586319551     -1.38563833950960     -0.08564377874634
  O   0.25001750890123     -1.47083002304726     -2.38120412228707
  C   -0.33844994433831     -0.69221649101759      1.09058260334290
  H   -0.94561271605387     -2.32166709836915     -0.16457726881745
  H   -0.83026757258690     -1.08772490917410      1.97306146985276
  H   0.46740899364840      1.05166969163514      2.12589833268257
  N   1.54064438001929      3.31585349396245      0.80337009217620
  N   2.59812314618765      2.54509363216427     -0.98890241034154
  C   2.35699616925593      4.32776707827190      0.37457287082819
  H   0.88536048882046      3.36249110509095      1.56938237267246
  C   3.00208053086187      3.82549280955593     -0.73586705189722
  H   2.40311630262463      5.28087838045038      0.87463580880889
  H   3.73141105365372      4.32055370251638     -1.35720620098309
