19
Coordinates from ORCA-job opt
  C   0.97764513027002      1.01834009522786     -0.18896541837609
  N   -0.06501983053005      0.86487577018914      0.68234967033446
  C   1.63954050081085      2.31000386130061     -0.22875869596396
  C   1.35591012989120     -0.03820263648898     -0.97426327902890
  C   -0.81055932652315     -0.30601758494727      0.88556587213972
  H   -0.42833694422515      1.66897221153901      1.18293241305338
  C   -0.37950112408893     -1.39802251763762      0.04647986882244
  O   -1.73040205005919     -0.31293933053839      1.69921886628561
  C   0.64708038156631     -1.25490708026705     -0.84720060008146
  H   -0.92258646388003     -2.32885287102089      0.14765024250786
  H   0.93247603840331     -2.09912424249830     -1.46589184316605
  H   2.18469729647437      0.08875483677510     -1.65606866447537
  N   1.81563482801752      3.09525491002184      0.87813831619599
  N   2.19591700506899      2.86580826864680     -1.29941350291497
  C   2.52434769042656      4.20237439721562      0.49396694331405
  H   1.58331349631157      2.84642856679122      1.82897953507280
  C   2.74209173330250      4.03788239258701     -0.85732420003910
  H   2.79634708010214      4.98041776620762      1.18771845854518
  H   3.25430242866114      4.70835318689667     -1.52911098222560
