19
Coordinates from ORCA-job opt
  C   0.94501813738527      1.03083798647133      0.20440733270528
  N   -0.35409733302482      1.01118086386903     -0.20612818816147
  C   1.58395085652715      2.34114140780725      0.23960435960607
  C   1.59346924980648     -0.14934986434967      0.45629382333091
  C   -1.15542956190761     -0.12765399537020     -0.35046983419589
  H   -0.82352241789093      1.90030902383598     -0.35508210539284
  C   -0.43943134293176     -1.35617802307049     -0.08402484614426
  O   -2.33095476223306     -0.02409841867624     -0.68611814210462
  C   0.87155537548190     -1.35869728758509      0.30162606841530
  H   -1.00147588383406     -2.27429771591642     -0.19873566210240
  H   1.36716585236710     -2.30269944992601      0.50214803097019
  H   2.61969419696069     -0.13600149720194      0.79757542246732
  N   2.69227227103266      2.64112338587599     -0.49741778908503
  N   1.08710862701881      3.43071472346554      0.81607883103373
  C   2.94217550592768      3.97811900270262     -0.35287008712355
  H   3.21796518898257      1.98440308012763     -1.05603289633149
  C   1.93509552271052      4.44491297921220      0.46528343047192
  H   3.77958971026065      4.46252019614751     -0.82689144969590
  H   1.78275080736074      5.45311060258099      0.81675270133673
