19
Coordinates from ORCA-job opt
  C   0.94480453369460      1.02969878069245     -0.08372749704662
  N   -0.40367373450386      1.01879535646378      0.09233439490187
  C   1.54913338672030      2.34767065869560     -0.10712660216098
  C   1.62655750973456     -0.15593349066378     -0.19528079322756
  C   -1.21715279633899     -0.11778797599881      0.15051586839940
  H   -0.87622046769468      1.91924583407014      0.13904158647464
  C   -0.46897445282912     -1.35201104034262      0.05036466730642
  O   -2.43185273368087     -0.00973205908735      0.28429835602389
  C   0.88797148747590     -1.36034903009900     -0.11622049077286
  H   -1.04183970457825     -2.26877272887647      0.10688338965071
  H   1.40976355823231     -2.30795973281751     -0.19896522747246
  H   2.69330347179942     -0.16179625632593     -0.37438899738070
  N   2.84775093065000      2.60565104742244      0.21296634253304
  N   0.88864076622013      3.47352169215178     -0.36431209840519
  C   3.03420216537252      3.96000715104685      0.14068542848390
  H   3.53354397344010      1.92400366166577      0.50174143456310
  C   1.80677198515428      4.47488288210947     -0.21960028938425
  H   3.98530660348382      4.42171509570682      0.34765533186820
  H   1.54486351764782      5.50855015418636     -0.38086480435453
