19
Coordinates from ORCA-job opt
  C   0.94362202834857      1.03169653479087      0.17922029223421
  N   -0.37314094784760      1.01566067988636     -0.16673466996106
  C   1.57139346300855      2.34384181571000      0.21183171376352
  C   1.60644028471297     -0.15041390529241      0.38497431105470
  C   -1.17821532182642     -0.12290354778539     -0.28883524860910
  H   -0.84609864188769      1.90882778888933     -0.27891202764152
  C   -0.44745270876309     -1.35367750029715     -0.07856311741325
  O   -2.36926525278506     -0.01783093943893     -0.56357054930644
  C   0.88070153401147     -1.35847522021421      0.24405057605848
  H   -1.01205165797192     -2.27155072300471     -0.18190537007377
  H   1.38732456114332     -2.30413769627653      0.40555064232283
  H   2.64563832747415     -0.14187213449855      0.68512398887098
  N   2.75050689992514      2.62260011969852     -0.41384339192032
  N   1.01103950654571      3.45185827747052      0.68726926861171
  C   2.97660265187718      3.96713149475368     -0.30050900066953
  H   3.33149820914177      1.95163958764942     -0.89524251490688
  C   1.88593606426852      4.45840684983874      0.38571225758263
  H   3.85632342513817      4.43952822637029     -0.70491457891276
  H   1.69209657548624      5.47907129175014      0.67529641891557
