19
Coordinates from ORCA-job opt
  C   0.94619379042838      1.02892078504169      0.06408987819000
  N   -0.40624255545033      1.01869718378589     -0.07730297802806
  C   1.54777287920049      2.34795189812820      0.07685121897558
  C   1.62911405253526     -0.15734110258888      0.16288165476912
  C   -1.22167070528827     -0.11705711190424     -0.11695853131890
  H   -0.87741150203813      1.92036097986565     -0.11853588595826
  C   -0.47291130104953     -1.35191033542195     -0.02982221586511
  O   -2.43890431096783     -0.00813201036402     -0.22447415553888
  C   0.88755843040870     -1.36093578761521      0.10517223863186
  H   -1.04766779162245     -2.26831099595472     -0.07053994083157
  H   1.41043062506272     -2.30877032334162      0.17790252049803
  H   2.70031855861773     -0.16638831873255      0.31247716666304
  N   2.86047484502709      2.60377150551531     -0.18067682091735
  N   0.87380262462777      3.47652113058174      0.28284385386175
  C   3.04013837064845      3.95994439636780     -0.12463399416966
  H   3.56320170708501      1.92026423679839     -0.41954670153790
  C   1.79547927693051      4.47783240563087      0.16504511888023
  H   3.99947470204573      4.42047212240824     -0.29252090344682
  H   1.52374830379870      5.51350834179940      0.29374747714292
