19
Coordinates from ORCA-job opt
  C   1.03924850190458      0.98080851577513      0.08930799689206
  N   0.45587930058170      0.54922357424940     -1.06961731019446
  C   1.79812883187076      2.23038600418427      0.03178848426979
  C   0.91945671756575      0.22389486221529      1.22196299011314
  C   -0.30722703629856     -0.61493901608367     -1.23005103746711
  H   0.60043999571904      1.07722099079798     -1.92439262480627
  C   -0.41390387504529     -1.38559750124888     -0.01259111884642
  O   -0.79383486633881     -0.89043131625685     -2.32311054423738
  C   0.18005708501365     -0.98202214090825      1.15079094304157
  H   -0.98082255609730     -2.30584823364013     -0.07314927865422
  H   0.07948938831890     -1.59541460480662      2.03985382491327
  H   1.39076252877504      0.56157121824497      2.13405648358755
  N   1.20049629081909      3.44848646997596     -0.13637016044543
  N   3.10647684371025      2.36385026845962      0.21141768123684
  C   2.17646585369406      4.40541790786841     -0.07392711206497
  H   0.21013351207474      3.60954101562632     -0.25056014210274
  C   3.34658030404216      3.70925852023776      0.14028500928754
  H   1.96178317444417      5.45563626382952     -0.18167940631300
  H   4.34329100524604      4.10835620147978      0.24198632179024
