19
Coordinates from ORCA-job opt
  C   0.96630205142603      1.01801869031182      0.04848811805849
  N   0.90765927843702      0.30355615324084     -1.10705772301062
  C   1.69940515231064      2.26547706795524     -0.04267245395665
  C   0.34024286656247      0.54423196287709      1.17407383683580
  C   0.26679428448597     -0.92723351995415     -1.28281854496158
  H   1.40907545612759      0.67585947021548     -1.91121489904222
  C   -0.39958250964056     -1.39183411576937     -0.08566450816286
  O   0.29748790725346     -1.49755632990076     -2.36857540252104
  C   -0.35752953322709     -0.68322497460274      1.08279271308148
  H   -0.92774320920601     -2.33362073936177     -0.16233618067961
  H   -0.86178690718278     -1.07200683191714      1.96122903813790
  H   0.40783932784395      1.08152088517066      2.11039221975699
  N   1.57221676166497      3.30477485466639      0.82832450426901
  N   2.54246857684861      2.56855853519339     -1.02640280026234
  C   2.38175711892649      4.31818333213949      0.38983855949096
  H   0.95395246761398      3.34001129373525      1.62492659708493
  C   2.97260431614769      3.83730817125897     -0.75949072459811
  H   2.46121699542281      5.25746676712812      0.91140526339886
  H   3.68051959818475      4.33991032761319     -1.39923761291942
