19
Coordinates from ORCA-job opt
  C   0.97432978278874      1.02074679741333      0.18626834669537
  N   -0.08657340384752      0.86998074044890     -0.66335647681499
  C   1.62595045044200      2.31886107561370      0.22458467262972
  C   1.37028373614367     -0.03786867573001      0.95923676270315
  C   -0.83064442603649     -0.30251560436790     -0.86058386096985
  H   -0.45595828859370      1.67591298127400     -1.15679150408442
  C   -0.38079692855047     -1.39726868348132     -0.03458880344958
  O   -1.76428357123655     -0.30978818698737     -1.65837012421619
  C   0.66249348348769     -1.25639905108941      0.83963844116254
  H   -0.92316581948435     -2.32910356390384     -0.13041824415644
  H   0.96187404277735     -2.10291906961010      1.44847156152038
  H   2.21073616452437      0.08770438629453      1.62684864460015
  N   1.85576940527892      3.07000003671310     -0.89597852137837
  N   2.13852548104111      2.90265715144247      1.30191047544613
  C   2.54904553434899      4.18693947641402     -0.51307595291737
  H   1.65455983937192      2.79700150073406     -1.84732517586736
  C   2.70689047534540      4.06104815411180      0.85064834175300
  H   2.85286046022980      4.94473113303729     -1.21598914124049
  H   3.19100458196911      4.74968040167273      1.52487055858460
