19
Coordinates from ORCA-job opt
  C   0.98450093005731      1.01480238167216     -0.18390995645362
  N   -0.00362200301511      0.83169447276036      0.74269047859222
  C   1.67966206695096      2.28739834611661     -0.20619778964904
  C   1.31145065683600     -0.01807861491743     -1.02405154265280
  C   -0.75546442763491     -0.33782101829592      0.93595287632260
  H   -0.34409240361513      1.61415870026771      1.29013848095343
  C   -0.37873622098955     -1.40271501004983      0.03934095703581
  O   -1.63555150454087     -0.36198541975626      1.79227938478735
  C   0.60068588450998     -1.23284478320695     -0.90196699807196
  H   -0.92374206789594     -2.33293758777046      0.13486927734843
  H   0.84609372125957     -2.05614536255800     -1.56451556471156
  H   2.10502070534708      0.12894835253305     -1.74271593881745
  N   1.70746326363227      3.16235323304071      0.84587225436430
  N   2.35881720811968      2.77047092825662     -1.24194122268139
  C   2.45937955610483      4.24372179130478      0.46778614551342
  H   1.37565089162410      2.98704349478305      1.78311449613388
  C   2.84426548471903      3.97794883666309     -0.82888680987816
  H   2.64441185989743      5.07359779454416      1.12937660315984
  H   3.43670639863327      4.59979146461255     -1.48123313129530
