19
Coordinates from ORCA-job opt
  C   1.07343062920362      0.95926542911812     -0.10370172125180
  N   0.64511387226358      0.47126781439776      1.09752683602115
  C   1.81983503436148      2.22064441586176     -0.07065572766092
  C   0.74058152444143      0.29884492684612     -1.25411858360681
  C   -0.10124652044496     -0.69673100300500      1.29745166862729
  H   0.92724043429138      0.94884865924759      1.94812094770837
  C   -0.43061524130432     -1.36985978457005      0.06053877785825
  O   -0.41345850998384     -1.04950392137610      2.43068997408708
  C   -0.02400017466008     -0.89065488617384     -1.15262256306843
  H   -1.01159195717991     -2.27919053748543      0.14746345939217
  H   -0.28788711189099     -1.43183251755142     -2.05498199755312
  H   1.08089235451388      0.68437207987822     -2.20504547227321
  N   1.21887137061494      3.43105069588888     -0.26716143594110
  N   3.09899876269840      2.37130494989794      0.25102891279062
  C   2.16574965933949      4.40252427845681     -0.08941880685367
  H   0.25136820723200      3.57073671264095     -0.52013664455892
  C   3.32090741294597      3.72202935112595      0.23073257308401
  H   1.94509712630071      5.45068231298992     -0.20444380687095
  H   4.29361512725722      4.13560302381183      0.44473261006999
