19
Coordinates from ORCA-job opt
  C   0.94867565340589      1.02828968789209      0.21537903859815
  N   -0.33078622255963      1.00253063435048     -0.25554238440068
  C   1.59684585913296      2.33782621787483      0.25135918614704
  C   1.57769637827847     -0.14763469634841      0.52464133590621
  C   -1.12908224171166     -0.13695351014987     -0.41452686470887
  H   -0.79277255219186      1.88640760956141     -0.44947392166899
  C   -0.43374084432191     -1.36049380956750     -0.07978031487345
  O   -2.28538158128265     -0.03687090603003     -0.81266068941078
  C   0.85700542191376     -1.35802204483460      0.36865416397508
  H   -0.99382198972813     -2.27952682570067     -0.19647724423940
  H   1.33678038152529     -2.29869657089525      0.61720109853427
  H   2.58974651210773     -0.12723127578959      0.90501821016742
  N   2.62035237525676      2.67142311100005     -0.58795337617949
  N   1.18175086363345      3.39622325217128      0.93883547306000
  C   2.90191487516690      3.99665519561589     -0.39927506693336
  H   3.08267055442841      2.03933000579817     -1.22545286505438
  C   1.99779442332668      4.42345173347019      0.55036694528600
  H   3.68908921891470      4.50092589442621     -0.93465226410873
  H   1.89816491470484      5.41176629715533      0.97033853990394
