19
Coordinates from ORCA-job opt
  C   1.06256301316392      0.96710212049960      0.08617408585597
  N   0.83076557290404      0.36038381917725     -1.11047748439714
  C   1.80662569372578      2.21598567813972      0.02662439386046
  C   0.52804547650271      0.43671722479743      1.23161377426296
  C   0.12029468166735     -0.82975511881228     -1.30587961356097
  H   1.26889905496351      0.75765970106094     -1.93766076892446
  C   -0.44139169687809     -1.35703713304946     -0.08133167919560
  O   0.01005255786602     -1.31305103365305     -2.42810613275471
  C   -0.24115355002002     -0.74779740423534      1.12566080403798
  H   -1.02214035114044     -2.26619837205285     -0.17133003969739
  H   -0.67020244133392     -1.18415624460027      2.02150356944647
  H   0.73089770251073      0.90060369978050      2.18751999315478
  N   1.39658600002318      3.35911800548002      0.64678230495042
  N   2.85346898355907      2.44969252835446     -0.75902415438526
  C   2.24407722415226      4.36555966471197      0.27186330401890
  H   0.59263131786180      3.44154935193700      1.25204727367538
  C   3.13779734158753      3.77741034422865     -0.59828188096473
  H   2.13980658466755      5.37314356062103      0.63862514757142
  H   3.96527583421700      4.24247060761466     -1.11032289695448
