19
Coordinates from ORCA-job opt
  C   1.06041488613902      0.97393021691080     -0.12613767011791
  N   0.25600276863265      0.69360414445297      0.94311866600509
  C   1.77259771238402      2.23762543916089     -0.13224854553736
  C   1.13876864083113      0.07517821309081     -1.15784621114708
  C   -0.53253787609646     -0.45529189949176      1.11040967989868
  H   0.27852539397507      1.28457008080683      1.76689808450888
  C   -0.42913873266874     -1.37357892956249      0.00279814845895
  O   -1.19963735740484     -0.59436824218586      2.13215300928783
  C   0.38326668393658     -1.11563191439150     -1.06833391063503
  H   -1.00959844319335     -2.28446072796735      0.07263290849264
  H   0.44005098872274     -1.83831164055056     -1.87549516020137
  H   1.76624697035314      0.31044626298090     -2.00565910489522
  N   1.35599047008199      3.34692676853602      0.55257597129952
  N   2.89707635774236      2.48442882690385     -0.79632274943287
  C   2.24993358409819      4.35324376094794      0.29691291534088
  H   0.47578644369672      3.45850301309905      1.03459188327767
  C   3.19533082564522      3.79128560259657     -0.53416468527077
  H   2.13915846633834      5.33982272792932      0.71527844343205
  H   4.07466221678621      4.26147829673356     -0.94515867276460
