19
Coordinates from ORCA-job opt
  C   0.95464450114724      1.02575017726726      0.15468003975204
  N   -0.23388718940840      0.92398691635761     -0.51328957949185
  C   1.58551834311891      2.34686680598292      0.19910546465109
  C   1.47934820913776     -0.08189860491460      0.76095202881640
  C   -0.99869977008259     -0.23909497723310     -0.67185395679964
  H   -0.65042406579399      1.75927891145482     -0.91227880223840
  C   -0.41163810168210     -1.38752005028267     -0.02005498851098
  O   -2.04996001629995     -0.20807914279873     -1.30515438281050
  C   0.76744041516398     -1.30302386301797      0.66630071156562
  H   -0.96068902637132     -2.31741363043777     -0.09619556924477
  H   1.16855881480318     -2.18948083206531      1.14597966785514
  H   2.41400537258601      0.00259855867527      1.29709519891455
  N   2.22542723805567      2.89406192516163     -0.87753713182967
  N   1.67464887730995      3.14079879916145      1.25893745785712
  C   2.74124938814780      4.10038244116621     -0.48910832778002
  H   2.32165322799524      2.46549500831467     -1.78680260218471
  C   2.38609946280516      4.23095544944931      0.83614749775330
  H   3.29536459288670      4.73389622696402     -1.16160553082511
  H   2.60424072648073      5.05184288079499      1.50068180455040
