19
Coordinates from ORCA-job opt
  C   1.00780310760659      1.00209686484205      0.13555604983001
  N   0.09542043341795      0.75122347282943     -0.84964417917658
  C   1.70944873909107      2.27194750855569      0.15223316663600
  C   1.23470217692859      0.03800900845903      1.08612213858943
  C   -0.66351556991179     -0.41880652860182     -1.00810249309445
  H   -0.10467253538031      1.43278134269667     -1.57113396664974
  C   -0.39681686305664     -1.40459666677783      0.00799786238247
  O   -1.45166945958788     -0.50712268325330     -1.94665444227363
  C   0.51386918948753     -1.17263800252925      1.00394712375077
  H   -0.95120057767841     -2.33182137655888     -0.05776338465187
  H   0.68785987859686     -1.93920937178413      1.75172940776547
  H   1.95701114706114      0.23912978083183      1.86415361064041
  N   1.54025114910113      3.28076963814351     -0.75658784823318
  N   2.61459239741163      2.61404253687658      1.06650010088306
  C   2.37457936058688      4.30826254669161     -0.40433367156992
  H   0.92324275109352      3.29950791058502     -1.55404338582817
  C   3.02709810123951      3.86813447632022      0.72744822924707
  H   2.42603585572784      5.22408680623789     -0.96938824115882
  H   3.76885871826477      4.39360173643568      1.30796292291167
