19
Coordinates from ORCA-job opt
  C   0.92254770193184      1.04041274795226     -0.03626934095841
  N   0.95272431339157      0.28447893074550      1.09345758482790
  C   1.64635557841961      2.29286349620966      0.05741704602701
  C   0.23920199889772      0.58868003123784     -1.13766598526280
  C   0.34149417880958     -0.96086894099232      1.26928369739434
  H   1.47900412244262      0.65345496926278      1.88369403910887
  C   -0.37634108073291     -1.40742703287851      0.09536221779998
  O   0.43994519798773     -1.55979663083936      2.33551411683964
  C   -0.41849298909805     -0.66047776467277     -1.04903544245879
  H   -0.87632580405251     -2.36462284338147      0.16984085077210
  H   -0.96498583204762     -1.03250519664458     -1.90926166364076
  H   0.21263413802629      1.16654490774331     -2.05145192900375
  N   1.67853500675376      3.25563543942661     -0.90499371017015
  N   2.36538260326387      2.65612733262244      1.11697247477391
  C   2.45683106980325      4.28295376622060     -0.44251968374483
  H   1.20119264783499      3.22942708963684     -1.79314018554740
  C   2.87092685815465      3.88718552749087      0.81164400255562
  H   2.63998029975366      5.17168057004259     -1.02324673335685
  H   3.50228899045993      4.42565260081770      1.50039964404437
