19
Coordinates from ORCA-job opt
  C   0.94563342226509      1.03038232045821      0.21163902212270
  N   -0.34383531389813      1.00718101945885     -0.22980909914575
  C   1.58965827055930      2.34018740052451      0.24743109975501
  C   1.58538326271492     -0.14785700574050      0.49132738099082
  C   -1.14271884179840     -0.13240381226629     -0.38284566346991
  H   -0.81063272297792      1.89329358327966     -0.40171994875920
  C   -0.43588914353628     -1.35846316555264     -0.08300834568316
  O   -2.30874554139837     -0.03078091873899     -0.75067035596018
  C   0.86517206954915     -1.35815784370773      0.33455547633670
  H   -0.99645998795637     -2.27720094910040     -0.20009031640075
  H   1.35411174012548     -2.30042389560016      0.55826274570037
  H   2.60460666170505     -0.13092180748789      0.85257378782388
  N   2.65748174948269      2.65467385529105     -0.54206511139860
  N   1.13277573934048      3.41605128734137      0.87928004927126
  C   2.92320860607857      3.98610936453966     -0.37681239677612
  H   3.15055910243000      2.00904076615049     -1.14187906351707
  C   1.96617708227985      4.43535539288278      0.50833893877495
  H   3.73654665883871      4.47889992746952     -0.88300286146129
  H   1.83986818619618      5.43443548079851      0.89449366179633
