19
Coordinates from ORCA-job opt
  C   0.95453172013885      1.02434318630563      0.16959880509887
  N   -0.26505053716714      0.94895217281115     -0.44203119623127
  C   1.59594902628057      2.34270209359493      0.20983554170918
  C   1.51371606692529     -0.10843030766751      0.69241566460857
  C   -1.04420360776221     -0.20470866895446     -0.59690731500108
  H   -0.69541123052235      1.80066465080138     -0.78851548385717
  C   -0.42185297453848     -1.38043006553432     -0.03084148246245
  O   -2.13168006537151     -0.14872076416304     -1.16344844353237
  C   0.79644400302482     -1.32622683161886      0.58576438622110
  H   -0.97645551843359     -2.30637659042506     -0.11449172847935
  H   1.22321101501901     -2.23248501232628      1.00207529538093
  H   2.47606673844972     -0.04686403453512      1.18073786605189
  N   2.35450553994227      2.82153020664562     -0.82042603483978
  N   1.51844988137888      3.22808728810015      1.19542446867759
  C   2.79115894479773      4.07101769248740     -0.47305074188510
  H   2.57117769181894      2.32394305021271     -1.67189174528539
  C   2.25986024516291      4.30066844053101      0.77769170055179
  H   3.41857078277323      4.66264977505794     -1.11873122878947
  H   2.37391227808303      5.17908171867673      1.39279467206352
