22
Coordinates from ORCA-job mp2_opt
  C   -2.98596672766000     -1.19998314712551      0.43564178954089
  C   -1.59576683678323     -1.22410286413278      0.45013064166552
  C   -2.93049514426496      1.02708122509234     -0.47914273091980
  C   -3.65956327977676     -0.07406101098823     -0.03483609992087
  H   -3.54297139468463     -2.05587620188512      0.80004342992888
  H   -1.07925895001851     -2.09106838417291      0.84837177802595
  H   -3.44774036792507      1.90883387778416     -0.84043376117508
  H   -4.74335682521641     -0.05184882156578     -0.04463636483698
  C   0.61644406042298     -0.19809468629765     -0.03307631827785
  C   1.40757412254827      0.99938369079039      0.22549794828829
  C   1.25741769812298     -1.38584503895010     -0.31987612615538
  C   2.66345224553754     -1.51112022510303     -0.33598466357867
  H   0.65077810802819     -2.25220403410466     -0.56300086968846
  C   3.41130539502218     -0.40354872315848     -0.06544830701053
  H   3.14557994040623     -2.45033548297198     -0.56605685218924
  H   4.49334032052156     -0.38997374914449     -0.05261576494984
  C   -1.53882326194647      1.01090170214157     -0.45860895123182
  H   -0.97763808007275      1.87322113757240     -0.79192817255610
  C   -0.85238083672701     -0.12354484039463     -0.00294005725045
  O   0.99207183848761      2.13364560746128      0.45946208650375
  N   2.78603043542633      0.77135687231554      0.20179526233278
  H   3.33103154055191      1.60330309683765      0.39823510345502
