17
Coordinates from ORCA-job mp2_opt
  C   0.44723065717711      0.01755952347114     -0.01391203878199
  C   2.38999727823316      1.11534806945994     -0.31265393938015
  C   3.09215108857178     -0.02648717278481      0.05445377426523
  H   2.90088458656542      2.03255975247152     -0.58701317573826
  H   4.17330514089535     -0.04065949963030      0.09060590107315
  C   -1.75822791805575     -0.98708676453023     -0.52103384641595
  H   -1.33403903598643     -1.86401739154016     -0.98147330188429
  C   -3.05551333624854     -0.59763679304009     -0.25805307774902
  H   -3.95558584038210     -1.13749374378027     -0.50212839736504
  N   1.00188240686090     -1.14215494660298      0.33278167526449
  N   1.05560646385385      1.14372147599370     -0.37474597082223
  N   -0.96301115906564      0.02381673134543     -0.06925059648219
  N   -1.65333014456648      1.02537108052008      0.50873591698583
  C   2.33963773058476     -1.15367221935929      0.35453758347206
  H   2.80592758426477     -2.09435147047641      0.62835278546275
  C   -2.93399479408577      0.64805649103788      0.38270949513036
  H   -3.70860370861639      1.29089487744484      0.77146921296527
