17
Coordinates from ORCA-job mp2_opt
  C   0.44702081750101     -0.01149579621626      0.02665097483726
  C   2.34993215594970      1.17213609630928     -0.23614247950041
  C   3.09336805412581      0.01515112149866     -0.04536258256687
  H   2.82398237974428      2.13008729890862     -0.42324054827730
  H   4.17457802486497      0.02343694294041     -0.07836186099234
  C   -1.75830923250649      1.06813588119973      0.31947194554108
  H   -1.33063462067455      2.01445311567314      0.60434860533116
  C   -3.05543283874131      0.63532760969566      0.14732881240764
  H   -3.95450826259879      1.21083525206460      0.29473032530331
  N   1.04435331841052     -1.17786119972781      0.24640940331290
  N   1.01351989510326      1.16933238196169     -0.21784433707372
  N   -0.96252365711640     -0.00709511118957      0.04174285248373
  N   -1.65778431011657     -1.10244056478561     -0.32022232336853
  C   2.37902216747994     -1.15208498610779      0.19529024108805
  H   2.88049733070387     -2.09944125878029      0.36489667819241
  C   -2.93632476860641     -0.70902541025877     -0.25227299026865
  H   -3.71317545352286     -1.41428037318570     -0.50470871644971
