17
Coordinates from ORCA-job mp2_opt
  C   0.44730705546955     -0.01536275951983      0.00880025880016
  C   2.35638415563007      1.18114913892639     -0.12157067327433
  C   3.09575212705531      0.01015205835090     -0.02132395891114
  H   2.83449715304263      2.15066705691042     -0.21674539321018
  H   4.17737000493052      0.01819811103154     -0.03587392434633
  C   -1.75177304740037      1.10669001871190      0.16074948818354
  H   -1.31672095478691      2.08055797952885      0.30558206352129
  C   -3.05172919594678      0.65910970171519      0.07810356429224
  H   -3.94673025499838      1.25414873378145      0.15868116421312
  N   1.03964821630590     -1.19823686713513      0.12663638963979
  N   1.02079944846412      1.18107297429004     -0.11627827623297
  N   -0.96212444715853     -0.00082377991888      0.01451570747122
  N   -1.66757306673996     -1.13428305463078     -0.16676917653349
  C   2.37502269159428     -1.17091425529661      0.10229938544231
  H   2.87170772151407     -2.13172553847997      0.19263001871140
  C   -2.94293925131868     -0.72953247422008     -0.12677496071895
  H   -3.72699135565684     -1.46046804404540     -0.25358567704766
