17
Coordinates from ORCA-job mp2_opt
  C   0.44732155412152      0.01609649446582      0.00200850521379
  C   2.37542899043310      1.16712494875213      0.13631884611360
  C   3.09540518255103     -0.01062912601065     -0.02019495159815
  H   2.87270968770005      2.12427547757830      0.25713237311490
  H   4.17707458424548     -0.01891629127489     -0.03353219557208
  C   -1.75084493317270     -1.09939590909345      0.20669197827931
  H   -1.31550347666240     -2.06688033379332      0.38930769568475
  C   -3.05120384155940     -0.65597373653240      0.10605958572522
  H   -3.94604746971498     -1.24735648390255      0.21150194734344
  N   1.01999779622727     -1.17773091792509     -0.14784080912807
  N   1.04005982309547      1.19402085663078      0.16229299745155
  N   -0.96198692730710      0.00188118478589      0.01911615530894
  N   -1.66754016252598      1.12645651788645     -0.21013703603121
  C   2.35584131141646     -1.17855065616684     -0.14977274675867
  H   2.83361717258997     -2.14596618920423     -0.26581229951524
  C   -2.94299066900482      0.72315860134570     -0.15486275903335
  H   -3.72707262243297      1.44789356245835     -0.31304828659872
