17
Coordinates from ORCA-job mp2_opt
  C   0.44834345740401      0.00154466001154     -0.06237470519259
  C   2.32843072592564      1.13207471728382      0.46208940212587
  C   3.08979775033805      0.03694468581829      0.07633767986176
  H   2.78606615115067      2.04226637086553      0.83549632711236
  H   4.17009608583187      0.04944117320883      0.13598717364939
  C   -1.79408278024031      0.79880460177647     -0.77282320259514
  H   -1.40373059041300      1.52035827647576     -1.47230594398272
  C   -3.07751140036356      0.47697395953374     -0.37312863087236
  H   -3.99519001176634      0.91732590452336     -0.72681374659413
  N   1.06576867833332     -1.10139335066008     -0.47557616526050
  N   0.99079976934542      1.12033851762155      0.41207881279072
  N   -0.96730740288633     -0.03439631172098     -0.08654672055957
  N   -1.61648731109259     -0.84915885693309      0.76356243219944
  C   2.40028361792885     -1.07453534695581     -0.39223210774540
  H   2.91867008159083     -1.97004556892396     -0.71876474588499
  C   -2.91133537850909     -0.54045516243638      0.57910219349557
  H   -3.65961144257746     -1.06730226948860      1.15085494745230
