17
Coordinates from ORCA-job mp2_opt
  C   0.44986057915692     -0.00085543207569     -0.04069072773023
  C   2.35174008313575      1.16555677530861      0.28873381795144
  C   3.09388321153869      0.01779064410065      0.04276556180186
  H   2.82685473541566      2.11209710643400      0.52462573049563
  H   4.17533096168927      0.02408314287508      0.08170178616483
  C   -1.79337420971281      0.38821712830905     -1.04715890461285
  H   -1.40134046452226      0.73798560320508     -1.98892645335049
  C   -3.08130349550494      0.23497546368435     -0.56500329901364
  H   -3.99820061883265      0.45122609684806     -1.08822265790303
  N   1.04766162499226     -1.15797996304602     -0.30992533240094
  N   1.01362799433294      1.16747625984372      0.25393170100519
  N   -0.96916271016559     -0.01999247241663     -0.04747023793374
  N   -1.62237633592482     -0.41303769202927      1.05797497587108
  C   2.38479842794450     -1.13695602666851     -0.26184583224347
  H   2.88725551199844     -2.07442979987151     -0.47630179922191
  C   -2.91997877696301     -0.26112882456205      0.73628346292715
  H   -3.67278251857834     -0.51644500993891      1.46584920819313
