17
Coordinates from ORCA-job mp2_opt
  C   0.44702755545436      0.01635659480676      0.00444287359887
  C   2.38022717678536      1.14598183407028      0.22881750867578
  C   3.09376472328315     -0.01654230190327     -0.03649171177555
  H   2.88258053151762      2.08620944357775      0.43212224110573
  H   4.17523853448965     -0.02681727902681     -0.05962420682585
  C   -1.75283355443596     -1.05686098126520      0.36054733091889
  H   -1.32106202914047     -1.99131244892846      0.67705047374264
  C   -3.05247354697874     -0.63348464902526      0.18169888465590
  H   -3.94904916966127     -1.20486399367852      0.35762561823266
  N   1.01292933777452     -1.16299010707730     -0.24727677228973
  N   1.04532664088880      1.17256706238468      0.27242832106175
  N   -0.96220588135414      0.00992787749565      0.04146670408255
  N   -1.66235616172166      1.08858327706375     -0.35960346146692
  C   2.34978252844457     -1.16799526965813     -0.25562954866108
  H   2.82356334926225     -2.12408331825294     -0.45261268372925
  C   -2.93974066510325      0.69518066190049     -0.26827980292162
  H   -3.72019936950480      1.38855559751653     -0.54152076840477
