17
Coordinates from ORCA-job mp2_opt
  C   0.44871756994768      0.01703797167691     -0.01694719119565
  C   2.40104657168160      1.07350778608024     -0.40396001281142
  C   3.09252871426854     -0.03975182828088      0.05765696235870
  H   2.91886942198159      1.96108367898299     -0.75238717272114
  H   4.17373369741304     -0.05965302048924      0.09464218680735
  C   -1.76744234550803     -0.80743926937629     -0.77069015188656
  H   -1.35266497429654     -1.52835393641481     -1.45657484019932
  C   -3.06326133529427     -0.49666660006330     -0.40385563354987
  H   -3.96745353828962     -0.94804782646148     -0.77780568478334
  N   0.99377628944147     -1.11314215290876      0.42637380364738
  N   1.06548303471832      1.10697422085147     -0.46496220976340
  N   -0.96624705907714      0.03821000920405     -0.06918136831706
  N   -1.64438299609166      0.84993158211507      0.76098630687886
  C   2.33207530540519     -1.13159821937587      0.45407914841618
  H   2.79137052653891     -2.04836149738162      0.80890618855386
  C   -2.93110123037369      0.52740834153262      0.54659257736800
  H   -3.69863665246538      1.04935076030890      1.09687309119743
