17
Coordinates from ORCA-job mp2_opt
  C   0.44967729829846     -0.00005478571269      0.02708493040350
  C   2.36886612671965      1.18384348555901     -0.00710490784763
  C   3.09490638116183      0.00008167740415     -0.03089080071018
  H   2.85780424857133      2.15236911059327     -0.01202671674058
  H   4.17664188025590      0.00013931455600     -0.06048376323186
  C   -1.78700859300144      0.00095750434750      1.11738567989129
  H   -1.38878200302604      0.00185273951092      2.11940019360471
  C   -3.07844548436047      0.00060090343255      0.61997550428752
  H   -3.99184970076684      0.00118533786192      1.19155461593058
  N   1.03102623532742     -1.19641830335431      0.02479544885245
  N   1.03088183152177      1.19637793850396      0.02368658689539
  N   -0.96943628550916     -0.00012339818241      0.03307162967978
  N   -1.62964890581495     -0.00108555536973     -1.13588625574004
  C   2.36901121300589     -1.18374636236087     -0.00602584020948
  H   2.85807199619498     -2.15221378044528     -0.01005584364987
  C   -2.92557153927135     -0.00066052211685     -0.77349521970393
  H   -3.68349469930698     -0.00126730422712     -1.54149624171166
