17
Coordinates from ORCA-job mp2_opt
  C   0.44723956304537      0.01749698056737      0.01381000668770
  C   2.39000688879553      1.11527756455674      0.31257298124674
  C   3.09215951792897     -0.02654751401791     -0.05456896271402
  H   2.90089380831098      2.03248305166534      0.58695513511340
  H   4.17331361641721     -0.04071927218021     -0.09072471315545
  C   -1.75821838251750     -0.98715766833279      0.52092860078043
  H   -1.33402894234738     -1.86409546238348      0.98135429100430
  C   -3.05550450033717     -0.59770003093048      0.25796244860968
  H   -3.95557378736960     -1.13756569641152      0.50203188290471
  N   1.00188987765190     -1.14220788571144     -0.33291585274078
  N   1.05561660995962      1.14364940049215      0.37467127934128
  N   -0.96300280064007      0.02375273059529      0.06915972617371
  N   -1.65332342005814      1.02532086275545     -0.50880054330614
  C   2.33964471493640     -1.15372452002270     -0.35468029801744
  H   2.80593307515054     -2.09439562860387     -0.62852760346082
  C   -2.93398804054381      0.64800590293077     -0.38277590634810
  H   -3.70859579838285      1.29085518503130     -0.77152047211920
