17
Coordinates from ORCA-job mp2_opt
  C   0.44919609624922      0.00172233827269     -0.04567879035754
  C   2.34075995632267      1.13923328383663      0.41804149636406
  C   3.09256696212075      0.02965878629580      0.05474044011719
  H   2.80726274938843      2.05846041893475      0.75662604693524
  H   4.17369685434991      0.03953324369655      0.09907720247849
  C   -1.79442201818092      0.59913188670095     -0.93817262081645
  H   -1.40294047404480      1.14027045815910     -1.78466249260169
  C   -3.08099453457163      0.35837664122609     -0.49052368255191
  H   -3.99831132962611      0.68857895456494     -0.94936143791919
  N   1.05668274338286     -1.11633641962507     -0.43228202525514
  N   1.00263649490069      1.13403232213872      0.38029027655361
  N   -0.96900682812027     -0.02653991504053     -0.05883037334212
  N   -1.62061344703062     -0.63613636871259      0.94506008742797
  C   2.39312511989050     -1.09198769133118     -0.37221427400474
  H   2.90337670061746     -1.99874303593336     -0.67988237356029
  C   -2.91753271793351     -0.40409396906683      0.67510305751017
  H   -3.66764932771463     -0.79938493411666      1.34231246302238
