17
Coordinates from ORCA-job mp2_opt
  C   0.44744899384247     -0.00105751689981      0.06279184215308
  C   2.33205250730144      1.14808627365277     -0.40157143740604
  C   3.08916232627597      0.03005171881205     -0.07912938546788
  H   2.79341206170261      2.07553451588552     -0.72445101559818
  H   4.16925796007903      0.04035949418565     -0.14052221183360
  C   -1.78229470032702      0.94405215193178      0.58681248239190
  H   -1.38093357662013      1.79220229772825      1.11696051093206
  C   -3.06841931419797      0.56156853733716      0.26271947178349
  H   -3.98059806716290      1.07609242690465      0.51625679236618
  N   1.06044626780115     -1.12647748772227      0.41734003940124
  N   0.99470581809093      1.13878607967644     -0.35399905674748
  N   -0.96469611163715     -0.02604762312601      0.09091433644462
  N   -1.62733195468245     -0.99309622286148     -0.57106190610657
  C   2.39370318524309     -1.10166748703697      0.32930430242552
  H   2.90840397724815     -2.01604558871948      0.60578214652703
  C   -2.91577068079401     -0.63673798373931     -0.45566577701474
  H   -3.67204969216323     -1.25961158600895     -0.90786013425062
