17
Coordinates from ORCA-job mp2_opt
  C   0.44728434654631     -0.00263118910301     -0.05860718677366
  C   2.33550930003319      1.15389373337441      0.37173965374095
  C   3.08965887773665      0.02661384555634      0.07566364213221
  H   2.79953845933664      2.08819097044065      0.67014372731766
  H   4.16987640717176      0.03594851031046      0.13442253883074
  C   -1.77721768899608      0.97712836801041     -0.53096491875930
  H   -1.37041392974544      1.85274289210577     -1.00948211788580
  C   -3.06541886588374      0.58063431288856     -0.23532440518571
  H   -3.97502268577110      1.11120651805727     -0.46385716893761
  N   1.05706672832390     -1.13719633713353     -0.38814296222588
  N   0.99827856700916      1.14630770398179      0.32778858230349
  N   -0.96402931903826     -0.02177200440042     -0.08525926725946
  N   -1.63307347627559     -1.02328427060520      0.51684329128435
  C   2.39035308542983     -1.11283835633075     -0.30371550608384
  H   2.90239822677053     -2.03463162214303     -0.55989107946255
  C   -2.91935510102408     -0.65711076503416      0.41533868678270
  H   -3.67965993162367     -1.30185830997554      0.82842749018173
