17
Coordinates from ORCA-job mp2_opt
  C   0.44770324896316      0.01967294875085      0.01672386143899
  C   2.39794359992707      1.09152310962849      0.36417670192736
  C   3.09178838186492     -0.03551419017046     -0.05982280187826
  H   2.91488746626444      1.99124128770196      0.68147093335693
  H   4.17285678605528     -0.05438437893459     -0.09844318439113
  C   -1.76182584604426     -0.91521233175393      0.63802755174773
  H   -1.34211503931283     -1.73079601232391      1.20398091588942
  C   -3.05818677733392     -0.56038945440822      0.32151791307103
  H   -3.95997974878148     -1.06813831491037      0.62160539384356
  N   0.99450389125472     -1.12460627557752     -0.38763733528371
  N   1.06330278005970      1.12400495307886      0.42988020185994
  N   -0.96439346139350      0.03495430765524      0.07661351030818
  N   -1.64901270763164      0.95895808247812     -0.62275960506220
  C   2.33258459076040     -1.14226505749166     -0.41437731435072
  H   2.79305522935048     -2.07068016629858     -0.73575846944084
  C   -2.93204740736179      0.59923629690994     -0.46161039612895
  H   -3.70338198664075      1.19201519566578     -0.92853787690731
