17
Coordinates from ORCA-job mp2_opt
  C   0.44986868383596     -0.00084760881988      0.04071727079643
  C   2.35172232111725      1.16553327921466     -0.28896099412609
  C   3.09388774536861      0.01782206226625     -0.04280607916909
  H   2.82681491205767      2.11203957482781     -0.52503460700777
  H   4.17533458838504      0.02412399841318     -0.08177074663021
  C   -1.79337483912015      0.38845428977217      1.04708911387575
  H   -1.40134580254053      0.73843165613526      1.98878112120220
  C   -3.08129925800877      0.23513733791985      0.56494350700213
  H   -3.99819998865169      0.45152642570970      1.08809973153043
  N   1.04769215839217     -1.15791502344887      0.31014344147981
  N   1.01361040849584      1.16743999493873     -0.25412776268117
  N   -0.96915574628912     -0.02000881184186      0.04751060679473
  N   -1.62235921683112     -0.41328146308825     -1.05785990820388
  C   2.38482743747492     -1.13688013747698      0.26202983898887
  H   2.88729999009327     -2.07431020068914      0.47664141856701
  C   -2.91996422238291     -0.26127655595438     -0.73622282014337
  H   -3.67275517139643     -0.51674681787824     -1.46574813227578
