17
Coordinates from ORCA-job mp2_opt
  C   0.44746455170785      0.01833790376436     -0.01628365237833
  C   2.39391642988148      1.10362754015063     -0.33920394178533
  C   3.09187394440122     -0.03063359618067      0.05814487877735
  H   2.90787214667186      2.01219048741362     -0.63558774462191
  H   4.17295313349446     -0.04680288314969      0.09659651184286
  C   -1.76024047193356     -0.95463447873912     -0.57856536772354
  H   -1.33867580950090     -1.80387042552625     -1.09080489153986
  C   -3.05684089128762     -0.58097984109981     -0.28813177011152
  H   -3.95798603355281     -1.10620748430269     -0.55866376323657
  N   0.99811414029953     -1.13364907097913      0.36048040263456
  N   1.05949400927096      1.13353700650491     -0.40454895148421
  N   -0.96356715210679      0.02911603932730     -0.07493940308553
  N   -1.65061819286404      0.99521253781492      0.56346709756996
  C   2.33605829740181     -1.14795061938251      0.38558442666701
  H   2.79944648051784     -2.08253547319321      0.68405692690240
  C   -2.93251633146897      0.62579055026520      0.42171963929504
  H   -3.70519725093230      1.24578980731211      0.84944160227762
