17
Coordinates from ORCA-job mp2_opt
  C   0.44738457088713      0.01618313021339      0.00087552180774
  C   2.37470698727188      1.17159853818911      0.10367616445762
  C   3.09597519992148     -0.00964410541343     -0.01489837644109
  H   2.87086690644143      2.13254186461457      0.19575239553510
  H   4.17766586873078     -0.01770283018648     -0.02472701492897
  C   -1.75052967557515     -1.10827934130348      0.15535161145498
  H   -1.31447623012039     -2.08268248059278      0.29335634421044
  C   -3.05102509531969     -0.66086132166578      0.08045618331163
  H   -3.94533099003785     -1.25694588836115      0.16134594211209
  N   1.02146539210603     -1.18111317166309     -0.11252695056971
  N   1.03925061156256      1.19887330324326      0.12284915712095
  N   -0.96205166474570      0.00049790975948      0.01228379707396
  N   -1.66883248507160      1.13455447587450     -0.15975483364039
  C   2.35704867276803     -1.18106433815856     -0.11331920122661
  H   2.83547550936607     -2.15113808765599     -0.20114458456342
  C   -2.94380815911829      0.72899859669933     -0.11670498893740
  H   -3.72855941906672      1.46056074640711     -0.23555016677692
