17
Coordinates from ORCA-job mp2_opt
  C   0.44991310250346      0.00641964122065     -0.01951617246675
  C   2.38532069121812      1.13666736345155     -0.26562926850653
  C   3.09471156095426     -0.01900350792346      0.03476457651319
  H   2.88783782022020      2.07201061780461     -0.48905434250665
  H   4.17647052376200     -0.02778136587368      0.06298745025052
  C   -1.78072746181951     -0.38853828816435     -1.04779669718151
  H   -1.37712076000349     -0.73702797654041     -1.98512842174397
  C   -3.07436546301640     -0.23911311547146     -0.57997304855149
  H   -3.98467391354527     -0.45801430266461     -1.11349117350303
  N   1.01409420104416     -1.16507279390008      0.26150691107983
  N   1.04786101944141      1.16005235110072     -0.30319728544306
  N   -0.96895125880708      0.02200497395914     -0.03887406949103
  N   -1.63564484976385      0.41296511833604      1.05919440877935
  C   2.35245011445713     -1.16559619655070      0.28572205791595
  H   2.82774454485737     -2.11409988088261      0.51319592731746
  C   -2.92914882492665      0.25739432528382      0.72308718250533
  H   -3.69084004657586      0.51043203681483      1.44416496503239
