17
Coordinates from ORCA-job mp2_opt
  C   0.44699220605854      0.01644801717259     -0.00445547634493
  C   2.38020004307126      1.14604774199213     -0.22886128936079
  C   3.09372547803243     -0.01649048418345      0.03641588336960
  H   2.88255405996392      2.08627991559411     -0.43215450518218
  H   4.17520190971636     -0.02677749219944      0.05952729398234
  C   -1.75288554297813     -1.05671771783224     -0.36061492545569
  H   -1.32112739132402     -1.99116649834408     -0.67714985733874
  C   -3.05252319941081     -0.63331139868434     -0.18179584650179
  H   -3.94911009493499     -1.20465654548735     -0.35779004550465
  N   1.01288051750023     -1.16291118182164      0.24722992484603
  N   1.04529748187322      1.17265355187447     -0.27243772559095
  N   -0.96224648685089      0.01003559525287     -0.04145538778103
  N   -1.66237712088388      1.08868930542159      0.35963267860372
  C   2.34973415546407     -1.16793855013027      0.25554752027359
  H   2.82349636935805     -2.12404186580281      0.45251291212456
  C   -2.93976999146293      0.69530593025932      0.26830717896676
  H   -3.72020139319242      1.38869767691855      0.54159166689414
