17
Coordinates from ORCA-job mp2_opt
  C   0.44968027179128     -0.00001392811929     -0.02705299461338
  C   2.36890938599327      1.18383576736290      0.00648026333569
  C   3.09491015229631      0.00006131980146      0.03088511847706
  H   2.85788388517706      2.15234563609050      0.01087863845568
  H   4.17664644735395      0.00010162430106      0.06045925384671
  C   -1.78698877746653      0.00030931998320     -1.11738159692426
  H   -1.38874733390318      0.00060741372875     -2.11939063675901
  C   -3.07843249370366      0.00012859619585     -0.61998903437796
  H   -3.99183204165146      0.00027709696784     -1.19157598003248
  N   1.03098914238883     -1.19639544691171     -0.02414038270262
  N   1.03092520784066      1.19640099143442     -0.02430331930691
  N   -0.96943172322766     -0.00004336952456     -0.03305575963813
  N   -1.62966041705456     -0.00033862266757      1.13589364619891
  C   2.36897499606082     -1.18375355111437      0.00665832886066
  H   2.85800068021790     -2.15223656260752      0.01119041217090
  C   -2.92557711316486     -0.00021199104767      0.77348420258538
  H   -3.68351226894816     -0.00039329387330      1.54147384042377
