17
Coordinates from ORCA-job mp2_opt
  C   0.44742243232944      0.01729507664864     -0.00001351738566
  C   2.37463475764879      1.17743115128125     -0.00002504180884
  C   3.09696685204999     -0.00885996855669     -0.00003138898062
  H   2.87005871751955      2.14313159423852     -0.00002475626145
  H   4.17861523973628     -0.01730641783024     -0.00004305173998
  C   -1.74991886673353     -1.11947564164246     -0.00010140783784
  H   -1.31259946304956     -2.10278001364445     -0.00010330644351
  C   -3.05076215837321     -0.66785532841424     -0.00009348382454
  H   -3.94403855858342     -1.27083702031924     -0.00011397153185
  N   1.02279744017283     -1.18504403079842     -0.00001331665548
  N   1.03907025744954      1.20609312540148     -0.00001285131518
  N   -0.96223429606484     -0.00002709228992     -0.00002602860773
  N   -1.67145314695531      1.14544097768826     -0.00003624065425
  C   2.35799937498336     -1.18448595449274     -0.00002086600253
  H   2.83669957101677     -2.15834807686224     -0.00001477204790
  C   -2.94549220069438      0.73626606442212     -0.00012130684038
  H   -3.73120795245230      1.47641755517038     -0.00014669206225
