17
Coordinates from ORCA-job mp2_opt
  C   0.44771612855555      0.01969915342565     -0.01686508211287
  C   2.39793563094104      1.09162881633267     -0.36419108740009
  C   3.09180116893764     -0.03542183180014      0.05973937539997
  H   2.91486541259335      1.99138311940561     -0.68140642411603
  H   4.17286915539384     -0.05426475958806      0.09838607417359
  C   -1.76178037143552     -0.91521017275316     -0.63823521400495
  H   -1.34204076212450     -1.73074964162314     -1.20423090603117
  C   -3.05815294199214     -0.56044183425023     -0.32171537888821
  H   -3.95993408286025     -1.06819097249315     -0.62183835795603
  N   0.99453925922442     -1.12459684968543      0.38742084476763
  N   1.06329557108855      1.12407964655841     -0.42992346936017
  N   -0.96437883032768      0.03495178144773     -0.07676819764301
  N   -1.64902715421082      0.95888521742936      0.62267137330515
  C   2.33261960519105     -1.14222064792792      0.41419002263121
  H   2.79311199126399     -2.07064732027804      0.73550707697090
  C   -2.93205125180561      0.59914030894507      0.46148504663233
  H   -3.70341252843291      1.19186298685477      0.92844030363177
