17
Coordinates from ORCA-job mp2_opt
  C   0.44893356961624      0.01785683490657      0.01584454679216
  C   2.40104003934347      1.07464029798777      0.40611460754806
  C   3.09301611668404     -0.03969305360727     -0.05167050864221
  H   2.91835288373889      1.96275166368931      0.75382083793298
  H   4.17434824389485     -0.06036945011284     -0.08504409826186
  C   -1.76924579755435     -0.72665701824701      0.84621169920007
  H   -1.35568613741849     -1.37702125389680      1.60012475088206
  C   -3.06540763193154     -0.45033439737627      0.45195392647260
  H   -3.97010507383289     -0.86050966369426      0.86950246703794
  N   0.99488864239065     -1.11273887425947     -0.42502653594251
  N   1.06485821215214      1.10947031688314      0.46083281378891
  N   -0.96743512144662      0.04092634092783      0.06160829465584
  N   -1.64440822759746      0.77059835838400     -0.84144512655887
  C   2.33321936468691     -1.13129346124516     -0.45046123422332
  H   2.79329750137344     -2.04819457729973     -0.80387245470710
  C   -2.93227665781148      0.47544066452695     -0.59361174756769
  H   -3.69941092628779      0.94476127243325     -1.18982023840706
