22
Coordinates from ORCA-job opt
  C   -0.68423392427037      2.08355490953105      1.03343254677238
  C   -0.52223614357642      1.10704145841766      0.08513311878304
  C   0.12034545938934      3.24583658594724      0.95857038413287
  H   -1.44615130755907      1.97090885318744      1.79183746823336
  N   0.41122919479162      1.29499142631303     -0.89327580195946
  C   -1.30578868343346     -0.13418058889283      0.03960376641574
  C   1.24770311848272      2.40663925160401     -1.05158384528647
  H   0.58018520262114      0.55145629537681     -1.56310147037682
  C   1.04204541207539      3.41309182091580     -0.03680390553067
  O   2.05567915835677      2.44504357022938     -1.97595258960827
  H   1.66085043700486      4.29889421222810     -0.10045857790322
  H   -0.00607100914112      4.02495302862096      1.70307702358725
  C   -1.66626303770822     -0.78360230604010      1.22666586338311
  C   -1.71514243560096     -0.67685128463867     -1.18568052546543
  C   -2.42100284418623     -1.95110549407432      1.18706010583895
  H   -1.32553639248702     -0.38554824746986      2.17617607419708
  C   -2.82301629965007     -2.48775007038502     -0.03514476315944
  H   -2.68615421837258     -2.45005117293149      2.11232304649692
  C   -2.46806521653880     -1.84677599013408     -1.22004349700311
  H   -3.40818207864760     -3.39957466246925     -0.06367403418589
  H   -2.78622601302954     -2.25209828333457     -2.17385294886778
  H   -1.48076737852037     -0.16267031200129     -2.11240943849413
