22
Coordinates from ORCA-job opt
  C   0.56636855876133      1.25408675001990      0.97253413568119
  C   -0.40391071395707      1.03221761492045      0.03407899129789
  C   1.27032814875699      2.48370784592745      0.94085266103242
  H   0.76763552199160      0.49666485941094      1.71738409424438
  N   -0.67464315517264      2.00747666393899     -0.88194148355088
  C   -1.24945686271552     -0.17483859393511     -0.01147256785405
  C   -0.03790243136139      3.25089514296077     -0.98995347317927
  H   -1.38963892418373      1.83719967673627     -1.58254742284655
  C   0.98701448373303      3.44293412380645      0.00951821314184
  O   -0.36930479366278      4.04237564370959     -1.86874713582867
  H   1.51810661568940      4.38572425363711     -0.01854869623890
  H   2.04428830320708      2.67021406473671      1.67809348686936
  C   -2.59674471823084     -0.09717123833593      0.35826649810814
  C   -0.70106771011933     -1.40942189388550     -0.37172296481811
  C   -3.38942431441767     -1.24153619898294      0.34985835029574
  H   -3.01381949763391      0.85855787481691      0.65934814842220
  C   -2.84153126185948     -2.46932282489964     -0.01813866705718
  H   -4.43157586079231     -1.17685684930952      0.64138397558121
  C   -1.49773765577591     -2.55171794826385     -0.37786188564540
  H   -3.45990565069255     -3.35952444753250     -0.02253421168250
  H   -1.06940921462251     -3.50567427673602     -0.66379644565929
  H   0.34552913305821     -1.46378924274052     -0.65215260031358
