22
Coordinates from ORCA-job opt
  C   -0.64513559546554      2.05825452614833      1.06137084167342
  C   -0.52402017414801      1.10853557457204      0.07965014324280
  C   0.15775994907906      3.22158137937338      0.98872001059197
  H   -1.37951575403243      1.93032971239080      1.84373657167588
  N   0.37776609513962      1.32221188879936     -0.92322483325112
  C   -1.29925442572578     -0.13846487662022      0.03684315676956
  C   1.21030932850799      2.43662043183937     -1.08146897946701
  H   0.52775595801848      0.59653737343107     -1.61628312275807
  C   1.04320517242335      3.41612663196692     -0.03407151269395
  O   1.98609842079902      2.49742089175414     -2.03187005055765
  H   1.66134397486125      4.30253959356195     -0.09534784261085
  H   0.06001328542247      3.97916411422412      1.75930162900985
  C   -1.71151091362758     -0.75459490336305      1.22536031366066
  C   -1.67037755539094     -0.71118193774964     -1.18737707293375
  C   -2.46744623184688     -1.92098211183841      1.18832173799425
  H   -1.40541389274322     -0.33660941335332      2.17777812654499
  C   -2.82528561275576     -2.48999997090818     -0.03297290161543
  H   -2.76971782533146     -2.39296749859674      2.11634321893599
  C   -2.42436278397315     -1.88047761585652     -1.21942649173162
  H   -3.41161487840174     -3.40111202559156     -0.05928721771980
  H   -2.70901864072023     -2.30835202379113     -2.17396214536179
  H   -1.40837790008851     -0.22237974039270     -2.12023457939833
