22
Coordinates from ORCA-job opt
  C   0.94603752372544      1.01220815121701     -0.14990981872980
  C   -0.40942178979895      1.03375709955203      0.04390362920566
  C   1.64665768296235      2.24282123037610     -0.17855086177756
  H   1.44658101410695      0.06573980045190     -0.30066881104377
  N   -1.03645020831247      2.23825155858277      0.18394394290858
  C   -1.25969680527521     -0.16541319171638      0.03656132215444
  C   -0.43251231848422      3.50172468919788      0.16450415740989
  H   -2.03647153858236      2.25370452874832      0.35915157414167
  C   0.99664518074183      3.43649655000010     -0.03394182244929
  O   -1.11117287043066      4.51463796367818      0.31320752934288
  H   1.52471426117854      4.38108469926919     -0.05777388542711
  H   2.72091269611457      2.23705746700750     -0.33105231541777
  C   -2.36654893615441     -0.23910610747643     -0.81809245766007
  C   -0.94065387752931     -1.26127594425715      0.84561236258063
  C   -3.14965214952457     -1.38920131484780     -0.85014358835159
  H   -2.59674557839185      0.59613042168611     -1.47215185305110
  C   -2.83180268318977     -2.47598855858904     -0.03748671845473
  H   -4.00110904214296     -1.44158589283156     -1.51913417703354
  C   -1.72605851000804     -2.40969271203505      0.80853035349528
  H   -3.44287085185026     -3.37079054591064     -0.06394105163469
  H   -1.47856452027210     -3.25146385809893      1.44530519925029
  H   -0.08861567888254     -1.19689503400408      1.51402629054168
