22
Coordinates from ORCA-job opt
  C   -0.87118508610130      2.22256965036547      0.85659129806669
  C   -0.54254176702698      1.12248796227710      0.11215239098516
  C   -0.04664232004042      3.37158697896510      0.76813932073026
  H   -1.75224234483291      2.19589750932570      1.48280246980452
  N   0.54959072472880      1.17848384488639     -0.70475620028529
  C   -1.34047354728421     -0.11499901538116      0.06537653950555
  C   1.41876640591552      2.26594689774612     -0.86223728209648
  H   0.79949179594422      0.35650766285641     -1.24609914882426
  C   1.04637245840471      3.40209789557894     -0.05181245410894
  O   2.37747715679841      2.18689411153177     -1.62593219740709
  H   1.67902181598877      4.27714940494340     -0.12755359826378
  H   -0.29529455910800      4.24894275315498      1.35612105277882
  C   -1.44090059395307     -0.93413501162651      1.19429836808377
  C   -1.95501169080775     -0.50643634481412     -1.12963388566051
  C   -2.17315911230924     -2.11710548511670      1.13560223823209
  H   -0.94183700135415     -0.63774822744473      2.11086122335694
  C   -2.79556431683443     -2.49674290478499     -0.05208487300189
  H   -2.24853432750840     -2.74796078975341      2.01401534194937
  C   -2.68501680393837     -1.69044335313449     -1.18376355075941
  H   -3.36349910819788     -3.41886522830290     -0.09654208128370
  H   -3.17009558333680     -1.98203292453356     -2.10838862647970
  H   -1.87552119514651      0.13010661326119     -2.00525634532212
