22
Coordinates from ORCA-job opt
  C   -0.66555196210387      2.07120925832240      1.04707521612464
  C   -0.52292481947897      1.10760946275318      0.08226340036673
  C   0.13813044273440      3.23406038579359      0.97342658794944
  H   -1.41450024213338      1.95114341059663      1.81699235431957
  N   0.39540571849830      1.30799341229710     -0.90808292774329
  C   -1.30250207312323     -0.13630951629530      0.03803444030631
  C   1.22991783514693      2.42104487076612     -1.06620727882427
  H   0.55546586999392      0.57295037188770     -1.58916242465092
  C   1.04251987075008      3.41451155706120     -0.03536555332102
  O   2.02259949402036      2.47029742271981     -2.00323217267927
  H   1.66093807754295      4.30066452743760     -0.09775604780022
  H   0.02529871690181      4.00284390414261      1.73074355468447
  C   -1.68793120433680     -0.76951394683587      1.22628394980613
  C   -1.69351587054624     -0.69347762627549     -1.18694262311564
  C   -2.44341980873446     -1.93637049901408      1.18804822410613
  H   -1.36358660099073     -0.36185247143474      2.17731173341255
  C   -2.82426855150306     -2.48864502779416     -0.03398096554457
  H   -2.72643997701375     -2.42227639539912      2.11495680459382
  C   -2.44713296517217     -1.86298549370387     -1.22003517571327
  H   -3.41012252000070     -3.40004933561214     -0.06132367666670
  H   -2.74929550686889     -2.27920308376007     -2.17434994752023
  H   -1.44588592358247     -0.19144318765312     -2.11679847209037
