22
Coordinates from ORCA-job opt
  C   0.10106189419197      1.57847740427349      1.24845374068156
  C   -0.50230021054446      1.09491537965331      0.11854522386273
  C   0.88244920640716      2.75579277032653      1.14913877872163
  H   -0.01426837487974      1.04508248317299      2.18193708726018
  N   -0.31206020581294      1.75041416310507     -1.06351592237058
  C   -1.29262603882235     -0.14466149679781      0.07233938567339
  C   0.44363650152715      2.91310815816244     -1.26111816881256
  H   -0.78096920730778      1.40673380269581     -1.89603241863904
  C   1.05504645592779      3.39728090915809     -0.04543108447829
  O   0.52758629258106      3.41417368611068     -2.37941466088154
  H   1.65311147132270      4.29550917198763     -0.13020887068839
  H   1.36367631884242      3.14894546795028      2.03860489295036
  C   -2.41153194297044     -0.29840275438964      0.89778743120074
  C   -0.95758241465683     -1.16032877299205     -0.83130390906505
  C   -3.16892199774002     -1.46482368968027      0.83813742522039
  H   -2.68491851024106      0.50362697637663      1.57525903219873
  C   -2.82505868104920     -2.47874077911877     -0.05421747145417
  H   -4.03593114669331     -1.57688785972221      1.47925940406827
  C   -1.71899637900182     -2.32403944058628     -0.88815632639498
  H   -3.41769634100501     -3.38502766045790     -0.10125707088592
  H   -1.44598782455731     -3.11225976697294     -1.58057436700627
  H   -0.08451686551799     -1.04669015225510     -1.46633313116121
