22
Coordinates from ORCA-job opt
  C   -1.12042993568167      2.39069864124343     -0.16001099704054
  C   -0.57621657686578      1.14650378375042      0.04218507818029
  C   -0.27078920063548      3.52160534574227     -0.17902254823147
  H   -2.18927889285203      2.50885916790430     -0.25380936985877
  N   0.77893743203622      1.06391173598697      0.19220896192632
  C   -1.34611489765207     -0.10953295033421      0.04650267543430
  C   1.69900431547556      2.11888397953632      0.18819865056580
  H   1.22069000936009      0.15546986388807      0.26783904773479
  C   1.07986948965444      3.40699283222436     -0.00823953289999
  O   2.89749469127813      1.88915482006171      0.32953273277326
  H   1.73658425580249      4.26712625781322     -0.02615775311148
  H   -0.70728295388785      4.50329817719121     -0.33061792920117
  C   -0.78059727814262     -1.31643073144499      0.48281266329386
  C   -2.65426190529657     -0.13808869567523     -0.45910555017405
  C   -1.50695428516894     -2.50294624940899      0.44002701085368
  H   0.21324920477737     -1.34422625667408      0.91575514712384
  C   -2.80889324561335     -2.51444221673047     -0.05109940001203
  H   -1.04950626855288     -3.42006645213960      0.79328026385743
  C   -3.37836402961350     -1.32328342615993     -0.49755486555307
  H   -3.37288122270884     -3.43912872680943     -0.08661663195693
  H   -4.38744369762578     -1.31827559140371     -0.89388085617974
  H   -3.10361500808695      0.76611869143836     -0.85032779752433
