22
Coordinates from ORCA-job opt
  C   0.89963070924494      1.04717833370098     -0.42466654063988
  C   -0.39948477126277      1.03021687926565      0.00219954412780
  C   1.59841509760730      2.28041671994489     -0.41727245307996
  H   1.36033440420080      0.12846220311787     -0.76021901409948
  N   -0.98110492835268      2.19856244541034      0.40225890291354
  C   -1.25531589666091     -0.17222994042798      0.00672180479504
  C   -0.37488344601213      3.46134185475187      0.44274749584799
  H   -1.94456134237904      2.18216624109240      0.72239763449113
  C   0.99767070078990      3.43709405065101     -0.00647199317722
  O   -1.00709697670868      4.43986487471169      0.83168789749089
  H   1.52438819302242      4.38273288367621     -0.00058569671526
  H   2.63046382207320      2.30662808338145     -0.75120605513330
  C   -2.19993362237105     -0.36041520934571     -1.00768002620097
  C   -1.10452366565831     -1.14314080552815      1.00120888824639
  C   -2.99325565579997     -1.50457898522284     -1.01833362822305
  H   -2.30250718189686      0.38809491059533     -1.78676356749441
  C   -2.84447068070009     -2.46795114964728     -0.02200864061445
  H   -3.72106385893589     -1.64804569416977     -1.80887394205655
  C   -1.89998913363158     -2.28634528950116      0.98640714120541
  H   -3.46177241812965     -3.35885238093830     -0.03285887005051
  H   -1.78163689888178     -3.03516993570872      1.76132447723963
  H   -0.36610144955717     -0.99382908980980      1.78188764112721
