22
Coordinates from ORCA-job opt
  C   0.96279170744487      1.01221371640181     -0.02120632721854
  C   -0.40743429756421      1.03230698488641      0.01049903110037
  C   1.66186772280752      2.24313309592405     -0.02806029185120
  H   1.48186037749789      0.06595370155992     -0.08153924996933
  N   -1.04317327144644      2.24022331091223      0.03431775855274
  C   -1.24832234774335     -0.17161794549945     -0.00043138821745
  C   -0.44120724143683      3.50442293177033      0.02638329016575
  H   -2.05442715102146      2.26357017590100      0.11766959917231
  C   1.00081141907492      3.43940150670530     -0.01158877229180
  O   -1.13350062975080      4.51847288017084      0.06077863343815
  H   1.52838454190776      4.38452700042430     -0.01666452672590
  H   2.74646610564173      2.23493109308392     -0.05758980211682
  C   -2.44635349421710     -0.20051263892137     -0.72642963111808
  C   -0.85935768630986     -1.30843982520252      0.71861547581242
  C   -3.23547407828334     -1.34682264074898     -0.73497984512830
  H   -2.74184946697866      0.65904345831450     -1.31975665363992
  C   -2.84093762055668     -2.47551314600181     -0.01989988594878
  H   -4.15534173057961     -1.36064474186360     -1.30849393881896
  C   -1.65029863747048     -2.45240096955975      0.70481418267486
  H   -3.45753603321494     -3.36682145862263     -0.02620340799097
  H   -1.34313397766926     -3.32390302355163      1.27182054159750
  H   0.04936778986833     -1.27932446608287      1.30984520852196
