22
Coordinates from ORCA-job opt
  C   -1.13713206371670      2.38491660531786      0.06373411779070
  C   -0.57045152805108      1.13900074365765     -0.01041979462858
  C   -0.28959370274666      3.51865475484965      0.07889879993373
  H   -2.21049159824086      2.47922913332936      0.15024070554591
  N   0.79013297003803      1.04194741753999     -0.06685024953479
  C   -1.33605833712533     -0.11419166129190     -0.01253499503777
  C   1.70708774998487      2.10008573873691     -0.05395734720294
  H   1.21483165848037      0.12729902934345     -0.18162899497709
  C   1.07062833763702      3.39356799186737      0.02917211871098
  O   2.91252045598568      1.87372635342367     -0.12060837023632
  H   1.72506426538673      4.25566431068571      0.04034014598880
  H   -0.73099899584594      4.50783564546284      0.14194997302494
  C   -0.86622465283588     -1.24037146450712      0.67606057240845
  C   -2.54931390676988     -0.19667394497400     -0.70672416987533
  C   -1.59983460991797     -2.42300195809971      0.67250395502527
  H   0.05279438220749     -1.18050902127452      1.25052667328201
  C   -2.80779138191932     -2.49720668685318     -0.01762036121524
  H   -1.23106231140370     -3.28472802084349      1.21720663178385
  C   -3.27992597186401     -1.38015387346309     -0.70511447552938
  H   -3.37700341262896     -3.41951414052370     -0.02082713275430
  H   -4.21397510387867     -1.43477261383486     -1.25277414069205
  H   -2.90000124277522      0.66139766145110     -1.26967366181088
