22
Coordinates from ORCA-job opt
  C   -1.13059712583605      2.39442724242462     -0.08816274953893
  C   -0.57675291850964      1.14528133374210      0.03953439585045
  C   -0.28035432611474      3.52519284772917     -0.10598466330697
  H   -2.20400684366549      2.50937239564042     -0.12020383653281
  N   0.78338855637600      1.05315119498083      0.12180464189842
  C   -1.34724433478433     -0.10802123573550      0.04185723693714
  C   1.70384796323312      2.10788490374926      0.11330672510750
  H   1.22109618518330      0.13893593355176      0.13461577808162
  C   1.07673797049692      3.40229702308418     -0.00394772554452
  O   2.90768957467848      1.87462726039812      0.18643322892126
  H   1.73377772662692      4.26223934029855     -0.02099893377954
  H   -0.72034292480949      4.51271596278061     -0.19791144696374
  C   -0.80444564617111     -1.29657381360548      0.55035152181733
  C   -2.62649684352079     -0.15026255446020     -0.53046655151718
  C   -1.52974824880584     -2.48373820242834      0.51069630733266
  H   0.16553077158884     -1.29824111784915      1.03621076202286
  C   -2.80478610886376     -2.51068834457620     -0.04728529201920
  H   -1.09528527899490     -3.38846107692888      0.92046439637622
  C   -3.34947424177045     -1.33669263909245     -0.56497434595916
  H   -3.36767789532965     -3.43617817408174     -0.08031975186843
  H   -4.33581669426399     -1.34778285468942     -1.01482341663307
  H   -3.04584031674333      0.74271557506773     -0.97829628068189
