22
Coordinates from ORCA-job opt
  C   -0.10671287396166      1.70444798556600      1.25239872414358
  C   -0.49513386193815      1.08955627508164      0.08987948075303
  C   0.67991611978032      2.87846359425436      1.17398238333612
  H   -0.36254034977647      1.26206380054649      2.20456518156142
  N   -0.11403290422719      1.64539872589568     -1.09773813454668
  C   -1.30765419679531     -0.13294438347709      0.03384941304551
  C   0.66190302598356      2.79700617447821     -1.27606359613757
  H   -0.45314787056198      1.24114491221688     -1.96434529753911
  C   1.05860020310596      3.40602352036790     -0.02861521217254
  O   0.92589070506298      3.19412669193677     -2.40805851481440
  H   1.65887115335649      4.30417820559445     -0.09622173896992
  H   0.99578742850110      3.36424341580500      2.09132924981256
  C   -2.25163354302676     -0.39966188496773      1.03380764931864
  C   -1.12801499466671     -1.06760516560894     -0.99502971019607
  C   -3.00422137438650     -1.56824786830026      0.99797342992286
  H   -2.41960059527967      0.32984012512515      1.81810237865699
  C   -2.82657569879587     -2.48916455000930     -0.03340731263185
  H   -3.73919712134941     -1.75587844155585      1.77254901662330
  C   -1.88588409184674     -2.23434874892009     -1.02844203357180
  H   -3.41682729227525     -3.39769931599455     -0.06110060541798
  H   -1.73139606308546     -2.95080445546753     -1.82723371683646
  H   -0.36519480381729     -0.90793561256717     -1.75028103433962
