22
Coordinates from ORCA-job opt
  C   0.86342049818023      1.09029727825012      0.54508072103347
  C   -0.43248289836214      1.05230198179542      0.09312176447087
  C   1.58262924391364      2.30669080838005      0.47932480394783
  H   1.31066137627627      0.21466619810372      0.99055374221652
  N   -0.95712794008656      2.20189804204854     -0.42547997819006
  C   -1.27314712296110     -0.15734619363284      0.07264376126917
  C   -0.32883861286831      3.44812011656323     -0.53360020200877
  H   -1.88308600772993      2.18995705912408     -0.83608228300168
  C   1.02280178984876      3.44438679378563     -0.02942443928483
  O   -0.92879887379621      4.39725734005481     -1.03191194177660
  H   1.56839536102628      4.37735127145296     -0.08713790899966
  H   2.60351755259882      2.33307486060015      0.84582253362432
  C   -2.65069798870086     -0.09048427005124     -0.18164141088833
  C   -0.69306713479391     -1.42372269169221      0.23847840753987
  C   -3.42369138357900     -1.24644269631537     -0.24067491485872
  H   -3.15539012536750      0.86411132076133     -0.28153998106686
  C   -2.83762524360877     -2.49561304800656     -0.06044396878492
  H   -4.48831050725419     -1.16579090507739     -0.42839534426221
  C   -1.46757376145424     -2.57588928968133      0.18244395824915
  H   -3.43964390311438     -3.39538185717027     -0.10922494551059
  H   -0.99445459329981     -3.54253934405192      0.31316606365593
  H   0.37570927513291     -1.51470477524093      0.38682056262611
