22
Coordinates from ORCA-job opt
  C   0.37250362852565      1.41417119072636     -1.12298302671403
  C   -0.44130203114049      1.05826952778776     -0.07610251551580
  C   1.11887812438118      2.61316995677528     -1.04075885062671
  H   0.47991560121259      0.76170683616194     -1.97605246456225
  N   -0.51088280223808      1.90923604310789      0.99044665231203
  C   -1.29524526916491     -0.14189210348630     -0.05170265129342
  C   0.18444074228326      3.11157042999891      1.16398232811873
  H   -1.15910105611113      1.71585378806601      1.74454205727882
  C   1.04321139221911      3.43228689317034      0.05002241701954
  O   0.01632576741354      3.77714076272845      2.18273878042415
  H   1.60819856139232      4.35295482417845      0.11766938706385
  H   1.76873691851978      2.88406606596687     -1.86630812646717
  C   -1.49675039940497     -0.89396226067009     -1.21829135857613
  C   -1.86317982700127     -0.61041406426086      1.14216127345140
  C   -2.26741964602147     -2.04984433148804     -1.19737621790815
  H   -1.08539065737979     -0.55275953208377     -2.16011262538120
  C   -2.84515185974111     -2.49305404087224     -0.00896244364997
  H   -2.41812980184209     -2.60604946483764     -2.11565987337529
  C   -2.63793155239693     -1.76656478862941      1.15965691030613
  H   -3.44793912851592     -3.39351412434304      0.00533976913093
  H   -3.06739618160173     -2.10560705010896      2.09548225484008
  H   -1.68319052338755     -0.10456355788791      2.08416932412447
