22
Coordinates from ORCA-job opt
  C   -1.11536047242206      2.35547356547734      0.27289291464604
  C   -0.57095040109552      1.14064156653965     -0.04527348468901
  C   -0.26687605970262      3.48949872009230      0.30914535496347
  H   -2.16956646870737      2.42080072959787      0.50418015424142
  N   0.76924147733949      1.06126275211228     -0.29260210701473
  C   -1.32574890904193     -0.12300454466489     -0.05405560544950
  C   1.68549047448472      2.12072452058470     -0.27570742428678
  H   1.16875039766262      0.16297587762136     -0.54670694621017
  C   1.07156628078060      3.38635993306158      0.05218946510506
  O   2.87064414580346      1.91873082775449     -0.52719134368370
  H   1.72666819166947      4.24755573339349      0.08172487396547
  H   -0.68774266328768      4.45815387892957      0.55793803154981
  C   -0.97953337105395     -1.15149721858692      0.83025564526236
  C   -2.42842499678431     -0.28160245254491     -0.89949827959152
  C   -1.71810346137529     -2.33104317081864      0.85258969103675
  H   -0.14197486233852     -1.01617255704972      1.50737289959830
  C   -2.81096183243337     -2.48888494427166      0.00186563569957
  H   -1.44839100395469     -3.12189927586583      1.54328889298306
  C   -3.16485643182956     -1.46286269757918     -0.87242736535757
  H   -3.38543096717171     -3.40781100983363      0.02143321417083
  H   -4.01330708585294     -1.58368799046501     -1.53636890046656
  H   -2.69193498068885      0.51848875651574     -1.58314531647258
