22
Coordinates from ORCA-job opt
  C   0.96043196301330      1.01150286637943     -0.04356013669357
  C   -0.40848464558340      1.03286363203369      0.01862207084312
  C   1.66010163034843      2.24219569073713     -0.05585636142635
  H   1.47632428833717      0.06458279937252     -0.12006393148921
  N   -1.04353201061545      2.24054854957628      0.06246920753297
  C   -1.25078102700228     -0.17012459759160      0.00830236185490
  C   -0.44091214757364      3.50446136356060      0.05087279408775
  H   -2.05333893598502      2.26262791163254      0.16329538495300
  C   1.00006623625898      3.43852724254088     -0.01695119391834
  O   -1.13138598412169      4.51885361172756      0.10538921584565
  H   1.52801211362584      4.38341476075730     -0.02668864079019
  H   2.74382884825364      2.23392317399484     -0.10846213067060
  C   -2.43285122842190     -0.20649694433751     -0.74281107328259
  C   -0.87323598807518     -1.30025513281297      0.74331061152797
  C   -3.22040750276534     -1.35383186301305     -0.75702285144458
  H   -2.71671219231444      0.64942100575218     -1.34704859702163
  C   -2.83864980705069     -2.47570400238443     -0.02423986060761
  H   -4.12831059520140     -1.37441596947986     -1.34910514093151
  C   -1.66277534465973     -2.44530891826692      0.72389879895335
  H   -3.45394536288811     -3.36788002975939     -0.03530394590203
  H   -1.36578069458799     -3.31205903008576      1.30346445419509
  H   0.02554038700892     -1.26464512033345      1.34938696438440
