22
Coordinates from ORCA-job opt
  C   -0.76191152800040      2.13963752516764      0.97041322095709
  C   -0.52472443416648      1.10895399122136      0.09992558824594
  C   0.04856414458854      3.29797917221273      0.88809640455768
  H   -1.57460309866854      2.06090947355664      1.67923340311219
  N   0.47234158598932      1.24267946167990     -0.82268100307637
  C   -1.32111916530237     -0.12489959420000      0.05055093462423
  C   1.31942258348900      2.34627685393727     -0.98361271648475
  H   0.67542267138771      0.46479374967896     -1.44276168888220
  C   1.04150651255387      3.40806670485516     -0.04484428688079
  O   2.18983057284525      2.33682571592728     -1.85022155756536
  H   1.66379180588214      4.29091564613883     -0.11556899582037
  H   -0.13149073542900      4.12001580217844      1.57303265502316
  C   -1.57567429722163     -0.84546787631344      1.22286386240590
  C   -1.80889742692793     -0.60533090950776     -1.17121135375116
  C   -2.32350185375153     -2.01802767737086      1.17496618492904
  H   -1.16993142886723     -0.48884005726648      2.16361016830374
  C   -2.81378066132398     -2.48829401339133     -0.04218261912575
  H   -2.51247171285554     -2.57285579596437      2.08698914363407
  C   -2.55480191415871     -1.77954507015807     -1.21386283279071
  H   -3.39329505298279     -3.40352168582920     -0.07778381147958
  H   -2.93933281724975     -2.13790868150128     -2.16201203500918
  H   -1.63214474982995     -0.04016173505143     -2.08103966492681
