22
Coordinates from ORCA-job opt
  C   -0.90475347377533      2.23440275060782     -0.78571528585151
  C   -0.56324662456976      1.13433948592248     -0.04309183453716
  C   -0.06372660671265      3.37241126551791     -0.74208662699656
  H   -1.78220445479620      2.20100875661362     -1.41628640142891
  N   0.57680137252360      1.17819309218144      0.70662664338866
  C   -1.33308366943190     -0.11615944911100     -0.02427831505827
  C   1.47008047051800      2.25153287205170      0.81034125285027
  H   0.80641900800833      0.38766857657866      1.30052052692976
  C   1.07590122389744      3.38880302140710      0.01246563808065
  O   2.45953783468898      2.16449049476064      1.53291645392304
  H   1.72415956048938      4.25480515529151      0.05035404755117
  H   -0.32526155864451      4.24614662015781     -1.32986764332035
  C   -0.68042609877940     -1.35566463987120     -0.04546732660528
  C   -2.73234705337926     -0.08113675274665      0.00414646855260
  C   -1.41655111703860     -2.53672397395434     -0.03892724395270
  H   0.40260689822049     -1.39610684045483     -0.10612688154022
  C   -2.80897245632002     -2.49516696832542     -0.01168631106003
  H   -0.90159524906098     -3.49035738402016     -0.06494530319399
  C   -3.46347000415588     -1.26449588356346      0.00826415604030
  H   -3.38063390176837     -3.41595458008000     -0.00516568139939
  H   -4.54649867972628     -1.22628476716268      0.03903322567951
  H   -3.23953442018709      0.87645014819906      0.05087844194841
