22
Coordinates from ORCA-job opt
  C   -0.50296128054838      1.97654256816854      1.14413555606846
  C   -0.52955462465952      1.11534728164206      0.07524160204478
  C   0.29702461067548      3.14117779327161      1.07282910960698
  H   -1.12400663620881      1.79287060992299      2.00758605516862
  N   0.25336672422923      1.41833820037755     -1.00260048028663
  C   -1.29024346412739     -0.14561576087472      0.03646308187673
  C   1.07460885607430      2.53984278846140     -1.16687213260250
  H   0.31668614231423      0.76624047465195     -1.77526416614137
  C   1.05259801410833      3.42650902787600     -0.02906902017054
  O   1.72794938071851      2.67733174920782     -2.19806270486767
  H   1.67001252935216      4.31345448973240     -0.08859806728480
  H   0.30581967572575      3.82384860760050      1.91610620782029
  C   -1.87164390244285     -0.66048899708174      1.20437344678926
  C   -1.52201098674828     -0.82230188794031     -1.17008160875088
  C   -2.62485566758077     -1.82754238912570      1.17130140542432
  H   -1.70019656815386     -0.17160088481203      2.15530080581814
  C   -2.82938316986050     -2.50325804907525     -0.03041240913391
  H   -3.05284250126507     -2.21131956047562      2.09046700219022
  C   -2.27375675149179     -1.99329363099634     -1.19986473988328
  H   -3.41513961161268     -3.41468905453445     -0.05426386551886
  H   -2.43584056098122     -2.49806628166980     -2.14542945596931
  H   -1.15243120751686     -0.43112809432686     -2.11138862219805
