22
Coordinates from ORCA-job opt
  C   -1.06965902194794      2.33126078848558      0.46607771476760
  C   -0.57507910426538      1.14511183431535     -0.00150111684544
  C   -0.21974270568590      3.46566965803613      0.46677951260511
  H   -2.08795946515324      2.37681355990607      0.82645234549193
  N   0.71877426848012      1.09046919082004     -0.43314155057185
  C   -1.33427624299087     -0.12046460811922     -0.01968929070515
  C   1.63202926844554      2.15275867473804     -0.46880821663267
  H   1.08200071940000      0.20933613279234     -0.78339341520825
  C   1.07083544967529      3.38910063308272      0.02395331861655
  O   2.77250088931927      1.97543057069172     -0.88875199123321
  H   1.72617011669526      4.25063100440986      0.02397391416438
  H   -0.60109660812001      4.41320874987635      0.83292465800101
  C   -1.10656510226932     -1.08523584017999      0.96726502764411
  C   -2.30554921892026     -0.34779048570803     -0.99915945182756
  C   -1.83692180874680     -2.27063329329581      0.96541868417188
  H   -0.36291362396440     -0.89777807603597      1.73511813442374
  C   -2.80055763537547     -2.49671314371454     -0.01599710630797
  H   -1.65988413047723     -3.01357577410948      1.73479200396442
  C   -3.03407618155230     -1.53486572411121     -0.99694007032529
  H   -3.36936056424167     -3.41939727534698     -0.01486952408061
  H   -3.78420374497119     -1.70810671220342     -1.76018190779663
  H   -2.48126555333349      0.40697013567043     -1.75842367231610
