22
Coordinates from ORCA-job opt
  C   0.95035442580794      1.01128449329181     -0.12031690191630
  C   -0.40979756866707      1.03380150077284      0.03948990419952
  C   1.65100024991743      2.24174972756987     -0.14635209045655
  H   1.45515205814811      0.06408331905642     -0.25070856804954
  N   -1.03971769840809      2.23962640362217      0.15250929325616
  C   -1.25785157770669     -0.16623276220175      0.03130149339690
  C   -0.43588700419376      3.50305969421631      0.13333178914068
  H   -2.04283612511255      2.25712573093295      0.30846977313422
  C   0.99750084019703      3.43672778342916     -0.03100619392510
  O   -1.11822357538230      4.51698762734671      0.25604356487886
  H   1.52574496779891      4.38126837928981     -0.05255703313897
  H   2.72860300682804      2.23471533053286     -0.27298155378473
  C   -2.38512141266933     -0.22928161059823     -0.79740392379617
  C   -0.92195084966988     -1.27217456228574      0.81996065649199
  C   -3.16886666465400     -1.37899476946196     -0.82620046615561
  H   -2.62993143216893      0.61236314216637     -1.43779844687832
  C   -2.83290942443220     -2.47607202523415     -0.03510204128449
  H   -4.03567451643469     -1.42256680783755     -1.47583101822262
  C   -1.70796479874543     -2.42001998040266      0.78607991432670
  H   -3.44472520606611     -3.37043198875628     -0.05867083336734
  H   -1.44659616119180     -3.26922175701647      1.40726348279541
  H   -0.05709953319464     -1.21559586843249      1.47238019935530
