22
Coordinates from ORCA-job opt
  C   -1.09229580897078      2.34184394919852      0.38281496754476
  C   -0.57401364719451      1.14377789618056     -0.02630739617519
  C   -0.24224332632738      3.47565822864048      0.40310784845220
  H   -2.12822334814846      2.39577938441266      0.68767957050399
  N   0.74346623055621      1.07748334369129     -0.37755041218731
  C   -1.32943617261097     -0.12239142496882     -0.03988220660652
  C   1.65916915213620      2.13795832939972     -0.38635308216899
  H   1.12381009660293      0.18887256496526     -0.68863055294775
  C   1.07230736348967      3.38700191810307      0.03998231055332
  O   2.82206381197345      1.94947904369809     -0.73376980002436
  H   1.72826182894702      4.24790639233815      0.05632901036514
  H   -0.64245416223610      4.43218370859143      0.72281586171649
  C   -1.04962548097491     -1.11187897876010      0.90908549219486
  C   -2.36082683679979     -0.32084987643640     -0.96267778584349
  C   -1.78423264392255     -2.29433001159404      0.92121192046472
  H   -0.26344473770923     -0.94532169763802      1.63860392873546
  C   -2.80622058376379     -2.49248333234419     -0.00579581668324
  H   -1.56644484753153     -3.05600291729269      1.66126147712479
  C   -3.09359281205409     -1.50505678096037     -0.94620940390162
  H   -3.37815719118751     -3.41314030207369      0.00623400467516
  H   -3.88839753054265     -1.65680366080458     -1.66767641360538
  H   -2.57627035373121      0.45251222365365     -1.69237452218705
