22
Coordinates from ORCA-job opt
  C   0.81509406211741      1.12497940970485     -0.69315904587549
  C   -0.41026192882221      1.03822638470709     -0.09246465323955
  C   1.52399084415162      2.34984152637716     -0.61135480813465
  H   1.21523796464718      0.26388512504150     -1.21013134467793
  N   -0.89979945709908      2.12350270628293      0.57519155159005
  C   -1.24167531923845     -0.18132320961361     -0.06768446487097
  C   -0.27505793612797      3.37049124776342      0.71151614473332
  H   -1.81143782883773      2.05685954608468      1.01736009301284
  C   1.01183550714377      3.42561242613901      0.05786141831880
  O   -0.82529045330770      4.27406509506064      1.33540927675323
  H   1.54825960155482      4.36330183031211      0.12635146217118
  H   2.49631603201358      2.43223229243109     -1.08580963927745
  C   -2.03002121927887     -0.52090201221108     -1.17122137025210
  C   -1.27825244406414     -0.97840371787637      1.08117855579379
  C   -2.83175729523086     -1.65914982791874     -1.13212484062948
  H   -2.00636767511000      0.10806584626598     -2.05492345008899
  C   -2.85823125193084     -2.45675052289390      0.01027841016597
  H   -3.43887025970520     -1.92034536931542     -1.99144572902080
  C   -2.08141136567557     -2.11528885510877      1.11605369659240
  H   -3.48280306890621     -3.34216644817669      0.03915208696224
  H   -2.09918004400364     -2.73521431244260      2.00522077229390
  H   -0.66711346428989     -0.70931916061329      1.93664587767970
