22
Coordinates from ORCA-job opt
  C   -0.59619264287589      2.02906202401758      1.09307018967580
  C   -0.52720499980103      1.11142972699069      0.07561150483671
  C   0.20542332552354      3.19306357390607      1.02167593285668
  H   -1.29389369805141      1.88280998138888      1.90465660829281
  N   0.33470535501939      1.35604359016164     -0.95529848387977
  C   -1.29327429291897     -0.14263456598884      0.03573717120092
  C   1.16315072489811      2.47312188478499     -1.11490603511771
  H   0.45878522215468      0.65350734081424     -1.67606360684630
  C   1.04560123826007      3.42007852138428     -0.03189304111283
  O   1.89789958325757      2.56053572374143     -2.09541039791691
  H   1.66350223130472      4.30673235483326     -0.09155598268927
  H   0.14441663467945      3.92425191790356      1.82099166837068
  C   -1.76767408654698     -0.72059286679403      1.22098977394223
  C   -1.61693067865369     -0.75167318461989     -1.18492900091171
  C   -2.52344756471205     -1.88666380264303      1.18584577494521
  H   -1.50675091977281     -0.27831559201932      2.17539271129531
  C   -2.82681343106987     -2.49435218409566     -0.03148371916230
  H   -2.87071593835992     -2.32663930030090      2.11384015469473
  C   -2.37060992400394     -1.92122793047982     -1.21559237690465
  H   -3.41340036873186     -3.40529728210526     -0.05627619569687
  H   -2.61315056065677     -2.37615760262922     -2.16922742350777
  H   -1.32022620894234     -0.29488132825066     -2.12327622636499
