25
Coordinates from ORCA-job mp2_opt
  C   -2.44930642995662      0.59542234050980     -0.19805314422949
  C   -2.02214190319922     -0.69141501516086      0.22986556335248
  C   -0.64046533257857     -0.90262219880492      0.29453520514951
  C   0.19541402155850      0.14999640620938     -0.06682651874949
  C   -0.37163675771045      1.38125410300763     -0.47103544580466
  C   -3.19616798890095     -1.45074850369993      0.50045731380345
  H   -0.22082350929593     -1.84699002568533      0.62870471538049
  H   0.28696901261292      2.19453965140508     -0.76324636391157
  H   -3.25679176375018     -2.47115417884359      0.84524490035039
  C   1.66172376793951      0.01164896655353     -0.00729993079051
  C   2.43638083032751      0.93743928283844      0.70152914676134
  C   2.30464871134043     -1.03086786286246     -0.68494929076726
  C   3.82243771051960      0.81261347412325      0.74572371139995
  H   1.94302167874237      1.74271855600269      1.23625298571389
  C   3.69061946992899     -1.15543698843351     -0.64088267563817
  H   1.70999016989685     -1.73470634182628     -1.25860801026485
  C   4.45310456306048     -0.23368531426666      0.07464665963946
  H   4.41012509715421      1.53053154596435      1.30690859852875
  H   4.17621826133663     -1.96518844791275     -1.17394764499148
  H   5.53224889173850     -0.32921460836068      0.10775535885668
  N   -1.68150572590840      1.62625251024515     -0.54731670905875
  N   -3.81861455106363      0.59961122277022     -0.18601030784885
  H   -4.38520861676329      1.39230116926672     -0.44425612068959
  C   -4.26794674857242     -0.62695193479454      0.23292222930589
  H   -5.32564085845682     -0.82734680824473      0.31055177450237
