25
Coordinates from ORCA-job mp2_opt
  C   -2.45122946908736      0.61979559863317     -0.00100657363450
  C   -2.02107344543780     -0.73544199459290      0.00175119570782
  C   -0.63787442881314     -0.95298033438166      0.00248330524238
  C   0.19250653347683      0.16219550690258      0.00001826464392
  C   -0.37506612991887      1.45623457874394     -0.00240765211965
  C   -3.19301668727050     -1.54422437433409      0.00303626047641
  H   -0.21464262298611     -1.95291979210678      0.00467088619950
  H   0.28276593187531      2.32092450160826     -0.00408989276814
  H   -3.25104153006760     -2.62157332895525      0.00504739634553
  C   1.66546279053802      0.01867493933916      0.00038094369853
  C   2.37190767072385     -0.03678942189183      1.20612370221212
  C   2.37050659032019     -0.05270506896592     -1.20536581932906
  C   3.75938790923543     -0.16225586917891      1.20608164311175
  H   1.82601258235290      0.02061325037042      2.14221526617130
  C   3.75798166633236     -0.17812380920937     -1.20528962049107
  H   1.82350191214664     -0.00755549425883     -2.14147689946508
  C   4.45516433874020     -0.23207543867076      0.00038687457258
  H   4.29693434825033     -0.20304851112791      2.14686383930903
  H   4.29444433463838     -0.23114817139181     -2.14608285139290
  H   5.53497148935852     -0.32677188834730      0.00038746499832
  N   -1.68642337517614      1.70980607474588     -0.00300051974233
  N   -3.82086134662671      0.61657581929879     -0.00133402045158
  H   -4.38964079678100      1.44883542304303     -0.00313331985764
  C   -4.26702301534398     -0.68065085888479      0.00102615023553
  H   -5.32423325047974     -0.89789833638712      0.00109297632723
