25
Coordinates from ORCA-job mp2_opt
  C   -2.45569805035457      0.61406646553943     -0.14317933711928
  C   -2.02026625252851     -0.70115592055089      0.17368619138185
  C   -0.63826627534620     -0.90894956497440      0.22478665921930
  C   0.19718551296065      0.17617944675129     -0.03100135806986
  C   -0.38137379282926      1.42909008445036     -0.34851907835125
  C   -3.18973668300589     -1.48960505701074      0.37288808946437
  H   -0.22242370902243     -1.87616476434791      0.48968067543150
  H   0.26647461568327      2.26587855084924     -0.59207531149480
  H   -3.24410257748572     -2.53647445539335      0.62794691430357
  C   1.66362537527440      0.03228174586076     -0.01942552798454
  C   2.48176368184262      1.05644337365149      0.47611387032539
  C   2.26971672474911     -1.14736072779650     -0.47132295701913
  C   3.86549835790302      0.90949417872703      0.50740053895862
  H   2.02799472418284      1.96082281585977      0.86692801981379
  C   3.65302649193822     -1.29526979881376     -0.43883018857383
  H   1.65277111955708     -1.93872159264942     -0.88364540581548
  C   4.45646646274597     -0.26701435627166      0.05089337319639
  H   4.48190078437973      1.71050354585670      0.89975494424434
  H   4.10445959039931     -2.21152791556292     -0.80264750098663
  H   5.53395684037760     -0.38172560810830      0.07690827050316
  N   -1.69190027231502      1.67255864914782     -0.40709732123721
  N   -3.82481072357075      0.60876053868165     -0.13467577028496
  H   -4.39655381053021      1.41600468922535     -0.32854635379766
  C   -4.26652210830179     -0.65312576033532      0.17389267440108
  H   -5.32295602670346     -0.86701156278572      0.22952388949128
