25
Coordinates from ORCA-job mp2_opt
  C   -2.47180594170667      0.63564226003122      0.04172371027014
  C   -2.03631010716629     -0.71105648883136     -0.05039704039377
  C   -0.65624834921769     -0.92521588485823     -0.09531434029679
  C   0.19559718299988      0.17941519797948     -0.05637140780101
  C   -0.39146009285936      1.46623574600115      0.05615909254802
  C   -3.20507714081078     -1.52556031180331     -0.07804017128521
  H   -0.27132683713278     -1.93348375885275     -0.19035500968384
  H   0.23683235331122      2.34479002212099      0.13243127245321
  H   -3.25969086259281     -2.60114070998160     -0.14404518130078
  C   1.67071828349024      0.02469835869729     -0.05746898270415
  C   2.26583011517036     -1.23947572104523      0.07443080358497
  C   2.52861391139684      1.13381467059535     -0.12250651400314
  C   3.64787505777341     -1.39216517627089      0.11445267090150
  H   1.65061669626343     -2.12517295209763      0.16767387473194
  C   3.91149980237289      0.98436834439000     -0.08149827976727
  H   2.12766692011797      2.13139461447444     -0.24333804283507
  C   4.48198105719665     -0.27960892413594      0.03908750696970
  H   4.07142301806880     -2.38496650299904      0.21702069083673
  H   4.54304584507778      1.86376720532619     -0.14087025922242
  H   5.55899710497005     -0.39599578256810      0.07316463048124
  N   -1.70095137621718      1.71846255368090      0.10078833292896
  N   -3.84026901340543      0.62886095886449      0.06741579049154
  H   -4.41215246553130      1.45657827936940      0.13127092987253
  C   -4.28180682592288     -0.66884718061447     -0.00370884665746
  H   -5.33804733564635     -0.89060481747234      0.00316176988040
