25
Coordinates from ORCA-job mp2_opt
  C   -2.46591619596986      0.63080762431806      0.07762189101333
  C   -2.03004602020252     -0.70919717873632     -0.09413183411016
  C   -0.64911775322743     -0.92312610845297     -0.12279869841046
  C   0.19691684519637      0.17867803855482      0.00117864619235
  C   -0.38801131899778      1.45527313890170      0.20001102933266
  C   -3.19920870854154     -1.51604276781533     -0.20400138740372
  H   -0.25269633057846     -1.91929829405210     -0.28497301644203
  H   0.24808851113274      2.31716405205941      0.36735991139648
  H   -3.25355336226336     -2.58457245428602     -0.34340976989011
  C   1.66789242274105      0.03010891839995      0.03177598995665
  C   2.51121018822998      1.11546327419582     -0.25105132569016
  C   2.26689906677956     -1.21928271796940      0.24971781227565
  C   3.89480955178703      0.96775967227689     -0.26830395259412
  H   2.08815419776360      2.08369529679411     -0.48912243403868
  C   3.64976906718784     -1.36999324307289      0.23015263170784
  H   1.65181604538029     -2.07963134424063      0.48510481938514
  C   4.47301969861138     -0.27593850492627     -0.02698224930545
  H   4.52060424915882      1.82562571120692     -0.48749992348473
  H   4.08368049084440     -2.34585407985266      0.41741446787709
  H   5.55053770938754     -0.39201890217500     -0.04217696109242
  N   -1.69777081578453      1.70680562830378      0.23209685850826
  N   -3.83469659169913      0.62561044360482      0.06957998003080
  H   -4.40679273408435      1.44876940890732      0.17600074737439
  C   -4.27618272204241     -0.66300223136605     -0.09803062097928
  H   -5.33258549080923     -0.88173538057796     -0.13054961160934
