25
Coordinates from ORCA-job mp2_opt
  C   -2.46942963384733      0.63388747600347      0.05891167635437
  C   -2.03295260236287     -0.71011120026414     -0.07024003069146
  C   -0.65221603954234     -0.92457601130318     -0.09274910851962
  C   0.19638631207339      0.17928114217387     -0.00546348418275
  C   -0.39061269753606      1.46113156685306      0.15206691085304
  C   -3.20161229332612     -1.52110483538534     -0.15210829906972
  H   -0.26104676545478     -1.92745051065364     -0.21950813890392
  H   0.24130816092533      2.33087823118788      0.28773257288945
  H   -3.25544801070019     -2.59362312801263     -0.25696229173855
  C   1.66917190237351      0.02900616441768      0.02867901510972
  C   2.51878513018982      1.12523776331729     -0.18710906743559
  C   2.26760629180778     -1.23053046859533      0.18332677884285
  C   3.90238666236457      0.97681870125786     -0.19765276322798
  H   2.10482685543653      2.10780431999875     -0.37461726566714
  C   3.65033231550434     -1.38228789567300      0.17060736726361
  H   1.65388940844317     -2.10478508879278      0.36206322072820
  C   4.47813757188914     -0.27801640373711     -0.01783215121707
  H   4.53005960063313      1.84544526673188     -0.36250004041755
  H   4.08011595308535     -2.36824362813791      0.30768447426830
  H   5.55565232213257     -0.39453143569532     -0.02755546428411
  N   -1.70042202152149      1.71350923947219      0.17760634140212
  N   -3.83815814070469      0.62795051889886      0.05318756963383
  H   -4.41070996694411      1.45372376570231      0.13388857841878
  C   -4.27902201867017     -0.66577740233805     -0.07224251309905
  H   -5.33532329624849     -0.88605414742669     -0.09650988730975
