25
Coordinates from ORCA-job mp2_opt
  C   -2.45306594991066      0.61062546081457      0.09586184940904
  C   -2.01712133207250     -0.72639004564447     -0.11495723547878
  C   -0.63302944164373     -0.93619103376405     -0.14391069762185
  C   0.19263073760857      0.16721067558481      0.04176673797601
  C   -0.38082005205950      1.44336454074316      0.24030232321288
  C   -3.18588659282114     -1.52891419394111     -0.24906825375632
  H   -0.20562903958410     -1.92144025897322     -0.30433498581788
  H   0.27351601630697      2.29911682628815      0.38196994491337
  H   -3.23945801546615     -2.59308740132116     -0.41833553726166
  C   1.66614816101787      0.03310559203986      0.01368486484357
  C   2.36624215180403     -0.34890054782369      1.16258464459961
  C   2.37613767598515      0.27470964335611     -1.16696545056318
  C   3.75244509346090     -0.48409649069169      1.13228516336472
  H   1.81634033409453     -0.53614707199306      2.07917704298849
  C   3.76242225130469      0.14073906682878     -1.19682337422388
  H   1.83357158995902      0.56738647889407     -2.06007842141798
  C   4.45319613230645     -0.23927305314684     -0.04739662600649
  H   4.28521878179875     -0.77880584755405      2.02949466299678
  H   4.30281248961950      0.33074782298762     -2.11742460368490
  H   5.53183458029531     -0.34387787844535     -0.07086661956923
  N   -1.69315028932375      1.68995950259151      0.27123603923763
  N   -3.82265206895763      0.60301073871252      0.08681425112707
  H   -4.39479418914609      1.42316352955382      0.21368270130657
  C   -4.26334545477255     -0.67955038258325     -0.11915649616609
  H   -5.31963156980394     -0.89783767251303     -0.15814392440750
