25
Coordinates from ORCA-job mp2_opt
  C   -2.45765004853739      0.61867691903258      0.12773282433929
  C   -2.02212818684126     -0.70368459829335     -0.15619485049905
  C   -0.64037956058967     -0.91312448848149     -0.20261105318928
  C   0.19734684370895      0.17758132170395      0.02199624650063
  C   -0.38265001997895      1.43667490994559      0.31382149362485
  C   -3.19161114873247     -1.49720906829994     -0.33478254958164
  H   -0.22864957987165     -1.88751618860983     -0.44571604015225
  H   0.26291996447538      2.27912668629898      0.54195894087520
  H   -3.24602295774290     -2.55013904600727     -0.56363416058191
  C   1.66450505977179      0.03264011378319      0.02343970032498
  C   2.48968605759273      1.07478096262582     -0.42181951072386
  C   2.26711999557018     -1.16928408720555      0.41884893696928
  C   3.87328778231832      0.92715597729504     -0.44980476347683
  H   2.04341345864173      1.99675690736454     -0.77777439551683
  C   3.65026927723184     -1.31835895383093      0.38934284061694
  H   1.64924288779357     -1.97944404529887      0.79055688633390
  C   4.45967494564187     -0.27014591800128     -0.04484392309321
  H   4.49301631815786      1.74442695275295     -0.80123001319146
  H   4.09664151687984     -2.25271607097303      0.71092537742512
  H   5.53712012543121     -0.38577517428513     -0.06846923036231
  N   -1.69292309212408      1.68223741442544      0.36672822264672
  N   -3.82668380071659      0.61337073757886      0.11972747846966
  H   -4.39847390585796      1.42500949467881      0.29419096335449
  C   -4.26839294693074     -0.65603910010885     -0.15660887925581
  H   -5.32482998529161     -0.87129565809024     -0.20657154185664
