25
Coordinates from ORCA-job mp2_opt
  C   -2.45307583300780      0.61062060876004     -0.09588223784414
  C   -2.01712128187316     -0.72639094746338      0.11494274309982
  C   -0.63302879770019     -0.93618160755470      0.14391550735907
  C   0.19262604878925      0.16722489479887     -0.04175738830458
  C   -0.38083292502982      1.44337340799091     -0.24029870853957
  C   -3.18587973323058     -1.52892744309138      0.24903714770899
  H   -0.20562926269574     -1.92142954291915      0.30434779210777
  H   0.27349772350358      2.29913091875206     -0.38196129602923
  H   -3.23944473656145     -2.59309960541497      0.41831372776201
  C   1.66614518260748      0.03312432940838     -0.01368124843417
  C   2.36623659160846     -0.34887315033867     -1.16258344162082
  C   2.37613969782366      0.27471403408957      1.16697194542905
  C   3.75244034809139     -0.48407154223589     -1.13228474681224
  H   1.81633813880329     -0.53611217935896     -2.07917950939131
  C   3.76242039399519      0.14074053909902      1.19682950488925
  H   1.83357183460437      0.56738318934376      2.06008628750201
  C   4.45319319007744     -0.23926196434931      0.04739865728131
  H   4.28520902179062     -0.77877178095873     -2.02950048154669
  H   4.30281333351852      0.33073683901165      2.11743178970315
  H   5.53183155162765     -0.34386764095315      0.07087022398682
  N   -1.69316496044765      1.68996036889795     -0.27124495316325
  N   -3.82266193223876      0.60299175820720     -0.08685292584186
  H   -4.39482004750309      1.42312555678059     -0.21377313239996
  C   -4.26334554351230     -0.67957697624400      0.11909681335665
  H   -5.31963100304033     -0.89787206425771      0.15805892974191
