25
Coordinates from ORCA-job mp2_opt
  C   -2.44957700546950      0.61266011174706     -0.09984127192751
  C   -2.02452944184264     -0.72640012041558      0.11986155458962
  C   -0.64211568451510     -0.94667884039412      0.15280662284410
  C   0.19250335167899      0.14909901172473     -0.03787178735248
  C   -0.37064386410903      1.42859188759036     -0.24468039272151
  C   -3.19980494363688     -1.51893465073942      0.25637347774085
  H   -0.22278510940516     -1.93429622402501      0.31981644545113
  H   0.29068216001746      2.27837524565488     -0.38989101392273
  H   -3.26206807584925     -2.58161974006341      0.43189194516405
  C   1.66511690338954      0.00665829798778     -0.00651873409741
  C   2.37765270091166      0.28167550886282      1.16527601011861
  C   2.36604765497572     -0.37402066638808     -1.15537173735713
  C   3.76562427814103      0.16552313223253      1.19105356955784
  H   1.83542833541057      0.58338966591179      2.05559776506300
  C   3.75391737761515     -0.49158123177017     -1.12911680719679
  H   1.81516463665472     -0.57686415098690     -2.06805475104093
  C   4.45638827447422     -0.22191364624225      0.04409028938435
  H   4.30765238984603      0.37858245475293      2.10562421194643
  H   4.28698208351448     -0.78822415781818     -2.02550935976397
  H   5.53642974105186     -0.31165727483782      0.06408900120721
  N   -1.68090957307765      1.68502715539600     -0.27992004177506
  N   -3.81918964894779      0.61581000410343     -0.09371118958719
  H   -4.38462026687123      1.43966636913791     -0.22650124549504
  C   -4.27032977135867     -0.66199516480802      0.11903222703832
  H   -5.32836550259852     -0.87181597661329      0.15708321213225
