25
Coordinates from ORCA-job mp2_opt
  C   -2.45508901848505      0.58319310405503      0.20111612835525
  C   -2.00872270699497     -0.69393599634287     -0.23642162090878
  C   -0.62368080310357     -0.88961102348738     -0.28596300316233
  C   0.19404248580166      0.16646486347996      0.10272490188764
  C   -0.38965204896724      1.38876546253172      0.50719417147753
  C   -3.17072872094547     -1.46388678381760     -0.52735145258477
  H   -0.18802843416149     -1.82731796370856     -0.61821718680732
  H   0.25777656865473      2.20941176315245      0.80385758528057
  H   -3.21566457602023     -2.48146365698451     -0.88270274860858
  C   1.66520699805541      0.04657222030238      0.04673867538065
  C   2.33883582829821     -0.83271003808833      0.90133170070830
  C   2.39927295823452      0.77127415162437     -0.89836191116855
  C   3.72229016298858     -0.97276792133376      0.82354986893420
  H   1.77045354052523     -1.39715065355699      1.63368127102596
  C   3.78280076348937      0.63149724283708     -0.97571152829089
  H   1.87679517241285      1.43985812774593     -1.57512577857317
  C   4.44725198103179     -0.24035715545391     -0.11479793570540
  H   4.23423588021050     -1.65130303997792      1.49676754615665
  H   4.34111354496469      1.19744933169895     -1.71306209522252
  H   5.52392575329226     -0.34911344361504     -0.17575671033035
  N   -1.70347439276168      1.61946933855492      0.56856446017894
  N   -3.82434869884978      0.57157309646253      0.17436706216319
  H   -4.40284805346071      1.35493565385488      0.43458228571230
  C   -4.25479802632122     -0.65546793008510     -0.26228553605485
  H   -5.30919715788839     -0.86749374984825     -0.35283914984367
