25
Coordinates from ORCA-job mp2_opt
  C   -2.44930189348919      0.59543338507000      0.19796946613730
  C   -2.02213153771074     -0.69143121765876     -0.22985604904667
  C   -0.64045470686904     -0.90265729315524     -0.29448053087711
  C   0.19541973936774      0.14998044805675      0.06683192043267
  C   -0.37163411416732      1.38126730760820      0.47094762617189
  C   -3.19615107581697     -1.45078070823663     -0.50043390835605
  H   -0.22083330168993     -1.84705741581759     -0.62858385278651
  H   0.28697445020203      2.19456466674397      0.76311949681771
  H   -3.25673900503481     -2.47121164549657     -0.84515268854689
  C   1.66173012938881      0.01162883751352      0.00734341370111
  C   2.43639798406177      0.93737498095468     -0.70153035910817
  C   2.30464513814609     -1.03084908584353      0.68505986628463
  C   3.82245275871719      0.81254315307483     -0.74570366949376
  H   1.94304000157308      1.74262080793159     -1.23630579054708
  C   3.69061494665065     -1.15542340157126      0.64101701650392
  H   1.70999334101995     -1.73466231185614      1.25875657677890
  C   4.45311006509419     -0.23371817381751     -0.07455971631470
  H   4.41015196822667      1.53042372576024     -1.30692439472603
  H   4.17619685048544     -1.96514744056574      1.17413913458331
  H   5.53225486740239     -0.32924577197160     -0.10765948131152
  N   -1.68150402994883      1.62628501232623      0.54718369913601
  N   -3.81860838176093      0.59962522245081      0.18588542014999
  H   -4.38522268712106      1.39232327920288      0.44406197977592
  C   -4.26793521479629     -0.62696233653762     -0.23298812156645
  H   -5.32563029193089     -0.82734602416551     -0.31063305379245
