25
Coordinates from ORCA-job mp2_opt
  C   -2.47535544800708      0.63735153083310     -0.00002633896163
  C   -2.03708260317822     -0.71121876075551      0.00002173496021
  C   -0.65633589560463     -0.92542039256901      0.00003575403631
  C   0.19516966824402      0.18034795187986      0.00001780491125
  C   -0.39584240637104      1.47061676831243     -0.00003677186488
  C   -3.20439502666671     -1.52827847012495      0.00003552254375
  H   -0.27196007400707     -1.93791697332419      0.00007686439761
  H   0.22773119602520      2.35528798984139     -0.00007856400947
  H   -3.25688746011625     -2.60599528881815      0.00007513176259
  C   1.67169725935105      0.02697609301674     -0.00000662675650
  C   2.53008875356958      1.13780289376297      0.00006923098554
  C   2.26951618833385     -1.24306380406638     -0.00001237707285
  C   3.91338696126212      0.98659551671764      0.00002149591996
  H   2.13084166179039      2.14281734470844      0.00011893045180
  C   3.65186312919816     -1.39746563068429     -0.00005400447508
  H   1.65809398397112     -2.13583814240686     -0.00009083173160
  C   4.48554190411701     -0.28224418479321      0.00001655966411
  H   4.54398690714770      1.86867913593383      0.00009630570314
  H   4.07611196605605     -2.39522309640457     -0.00006192558476
  H   5.56293510172821     -0.40013894082785     -0.00003174091878
  N   -1.70609151273614      1.72272917415135     -0.00005809976880
  N   -3.84403121779174      0.62970858031554     -0.00001122844840
  H   -4.41765924336866      1.45869640107254     -0.00007588860172
  C   -4.28310357168990     -0.67083153171354      0.00001256943169
  H   -5.33911222125701     -0.89378716405730     -0.00000350657349
