25
Coordinates from ORCA-job mp2_opt
  C   -2.45216624750332      0.60472274096644     -0.17243997627852
  C   -2.01960337165028     -0.69615828789272      0.20387048016541
  C   -0.63752322406414     -0.90410790500185      0.26191363826298
  C   0.19648846700496      0.16604211996771     -0.05156882023470
  C   -0.37720543701897      1.40752830097622     -0.41542257507534
  C   -3.19063050863519     -1.47101152645472      0.44228028895587
  H   -0.21741010772446     -1.85867678948108      0.56462180814091
  H   0.27576627527579      2.23242835138171     -0.68620056434178
  H   -3.24711593805336     -2.50483918238548      0.74536078357512
  C   1.66230122690591      0.02475170092880     -0.01296669625874
  C   2.46079530952483      1.00752736531492      0.58532798541646
  C   2.28338965000857     -1.09716943219625     -0.57563598351184
  C   3.84540637139196      0.86846875172219      0.62390087868735
  H   1.98850937399186      1.86918608436392      1.04562536305871
  C   3.66776007477822     -1.23638982725696     -0.53662660616572
  H   1.67453711119356     -1.84921703446788     -1.06702652088552
  C   4.45310341649220     -0.25357929620228      0.06352029031857
  H   4.44978751869589      1.63317826282365      1.09883750127054
  H   4.13427174875359     -2.10724765217835     -0.98343354595160
  H   5.53122505743456     -0.36104360170454      0.09384805516052
  N   -1.68768945729507      1.65024306274224     -0.48292338160326
  N   -3.82138601828908      0.60299251533911     -0.16095202931082
  H   -4.39132739269247      1.40255294720958     -0.38891288161269
  C   -4.26571214656351     -0.64171229194561      0.20716833220115
  H   -5.32258075196207     -0.84980437656876      0.27516717601692
