25
Coordinates from ORCA-job mp2_opt
  C   -2.46941624349956      0.63384780118887     -0.05889101575591
  C   -2.03292437145780     -0.71014944170886      0.07023832936331
  C   -0.65218534240829     -0.92459990329883      0.09275420368598
  C   0.19640773586342      0.17926415352210      0.00547062102898
  C   -0.39060442864755      1.46110566744918     -0.15206816765839
  C   -3.20157422408625     -1.52115555588377      0.15210142305133
  H   -0.26102031171511     -1.92747815831280      0.21950517830575
  H   0.24130001519643      2.33085866859985     -0.28776071746118
  H   -3.25540748102465     -2.59367544249838      0.25694086711331
  C   1.66919358713434      0.02899902606476     -0.02867359772051
  C   2.51879491914416      1.12524014160414      0.18712236181783
  C   2.26763717811316     -1.23053081490948     -0.18332366639797
  C   3.90239431181243      0.97682901214621      0.19765262508593
  H   2.10483224566136      2.10779938737887      0.37465226509760
  C   3.65036383007390     -1.38228213455344     -0.17061325672926
  H   1.65392003181203     -2.10478801276385     -0.36204909015331
  C   4.47815813160861     -0.27800347902669      0.01782004845285
  H   4.53009350887281      1.84543446663582      0.36251037475353
  H   4.08014269196920     -2.36823905880409     -0.30769725004282
  H   5.55567683413710     -0.39447805286796      0.02753828075747
  N   -1.70041677660196      1.71347158056130     -0.17759020171358
  N   -3.83814527044890      0.62790390511249     -0.05309304373249
  H   -4.41070979510113      1.45364910232045     -0.13398809694850
  C   -4.27899280718635     -0.66583565128257      0.07228422238410
  H   -5.33529296922143     -0.88611420667330      0.09658030341594
