25
Coordinates from ORCA-job mp2_opt
  C   -2.45333950613677      0.61350874892751     -0.14670537573202
  C   -2.02479494085714     -0.70146603731322      0.18024255370839
  C   -0.64396390277047     -0.91205700602531      0.24767930238305
  C   0.19711905484806      0.16982218962947     -0.00370981975371
  C   -0.37467944809317      1.42291400316913     -0.33240798738152
  C   -3.19834990912317     -1.48637998356980      0.36902190833192
  H   -0.23310255212676     -1.87932309518581      0.52031653893804
  H   0.27756940753534      2.25705237399680     -0.57296405470680
  H   -3.25819813234663     -2.53212348666598      0.62745821421610
  C   1.66278444542284      0.01970223425983      0.02048146250867
  C   2.26681898650624     -1.15135830377120     -0.45608063299362
  C   2.48550969373926      1.05370284190405      0.48698574031375
  C   3.65123211412318     -1.29251439290678     -0.44946939325578
  H   1.64624051914117     -1.94344085814631     -0.86150571065752
  C   3.87028453703428      0.91346043247591      0.49247579869506
  H   2.03507746833387      1.95813692783874      0.88150911184457
  C   4.45849042721049     -0.26032512942194      0.02544112640315
  H   4.10057704925466     -2.20412230437355     -0.82730113303175
  H   4.49022469822424      1.72002306120988      0.86747777717663
  H   5.53689811476385     -0.36910574522977      0.03014993070295
  N   -1.68399289461823      1.66898423202240     -0.40653799277367
  N   -3.82247230364120      0.61153826461668     -0.15378632840447
  H   -4.38998658078198      1.41932220012219     -0.35755933530370
  C   -4.27076021535541     -0.64810890984733      0.15453226371216
  H   -5.32827713028657     -0.85924525771560      0.19898103506011
