25
Coordinates from ORCA-job mp2_opt
  C   -2.45445870640549      0.58431765505142      0.20022049796239
  C   -2.00919949152053     -0.69344885470044     -0.23661943004645
  C   -0.62450632263095     -0.89092886571926     -0.28488036761134
  C   0.19459681078386      0.16359856341693      0.10594221388822
  C   -0.38845554856453      1.38668252814791      0.50993535248895
  C   -3.17193542583123     -1.46143506914352     -0.53005288576167
  H   -0.18997491793604     -1.82823472409595     -0.61981559918018
  H   0.25959962240990      2.20552494684294      0.81033625153350
  H   -3.21787687712918     -2.47894966494745     -0.88545572480454
  C   1.66453695833869      0.04354322794107      0.05062778203169
  C   2.32913089931255     -0.91218039280103      0.82704948259018
  C   2.40867548415941      0.84625012658531     -0.82100898137016
  C   3.71241046240361     -1.05083171269438      0.74661839933820
  H   1.75396883849667     -1.53559960621055      1.50426868972174
  C   3.79213690416878      0.70851458984368     -0.90033501091957
  H   1.89366996506061      1.57258062327487     -1.44165217351345
  C   4.44721256658014     -0.23984534681087     -0.11650820109526
  H   4.21683247103724     -1.78866397933520      1.36052296623537
  H   4.35766451572704      1.33500592721925     -1.58107359751578
  H   5.52394835282405     -0.34703267202530     -0.17895579810019
  N   -1.70180434193484      1.61940227786578      0.56913703680217
  N   -3.82360985614690      0.57488819975991      0.17093205438699
  H   -4.40134577801439      1.35915154317094      0.43015406121106
  C   -4.25521765849541     -0.65144381411358     -0.26664439103161
  H   -5.30979092669306     -0.86187250652248     -0.35885962724028
