25
Coordinates from ORCA-job mp2_opt
  C   -2.44881037406549      0.60025080073603      0.16586127063727
  C   -2.02586995672972     -0.70821660891925     -0.19583447679298
  C   -0.64392672803031     -0.92665353922824     -0.24899920323688
  C   0.19266729909308      0.13974871023764      0.06244709965610
  C   -0.36863527817647      1.39260980083218      0.39847191785172
  C   -3.20225713029499     -1.47848174886302     -0.42075679919838
  H   -0.22588682507979     -1.89101408786524     -0.52199362269153
  H   0.29400257835515      2.22124665439322      0.63257299440221
  H   -3.26606144154102     -2.51598205918937     -0.70946518618365
  C   1.66435167938440     -0.00091813385133      0.00833853387861
  C   2.38391159674065      0.51054919590227     -1.07665710204706
  C   2.35938780268823     -0.60727575000802      1.05971914631438
  C   3.77196332413197      0.40142435563621     -1.11763532556267
  H   1.84679638436348      0.98889751904245     -1.88941910500891
  C   3.74736559190556     -0.71781865533026      1.01795862763058
  H   1.80351489290464     -0.99042966102504      1.90939359905569
  C   4.45635111203863     -0.21352312134690     -0.07079899243090
  H   4.31911300185549      0.79747173212705     -1.96580289024225
  H   4.27560562038703     -1.19076606212682      1.83830236261945
  H   5.53660103907001     -0.29686697581628     -0.10211274496790
  N   -1.67848502082309      1.64606719280379      0.45948872286942
  N   -3.81842152277337      0.60704873663237      0.15712601455427
  H   -4.38250842090097      1.41324513728192      0.37596969282736
  C   -4.27148713295441     -0.63916810014167     -0.19391342141882
  H   -5.32982609154872     -0.84144033191368     -0.25653111251512
