25
Coordinates from ORCA-job mp2_opt
  C   -2.45122328794096      0.61983215619729      0.00111271174715
  C   -2.02109354124701     -0.73541261049041     -0.00185735022663
  C   -0.63789877161515     -0.95297579980044     -0.00267340141226
  C   0.19250294076689      0.16218478646080     -0.00005985739906
  C   -0.37504506351340      1.45623495837237      0.00257265802101
  C   -3.19305295383251     -1.54417161356645     -0.00322824370156
  H   -0.21466800387564     -1.95291532947057     -0.00502275790205
  H   0.28280144173516      2.32091378927602      0.00436974920679
  H   -3.25109444862665     -2.62151934566290     -0.00540924435269
  C   1.66545762466436      0.01863963279126     -0.00040039086149
  C   2.37195858755963     -0.03668835608607     -1.20611623831210
  C   2.37044371528859     -0.05289603319878      1.20537180329873
  C   3.75943855113489     -0.16217663871833     -1.20602381737234
  H   1.82610836518098      0.02084118357608     -2.14222616841256
  C   3.75791498620149     -0.17833786167041      1.20534586794577
  H   1.82339641086649     -0.00784926200183      2.14146280072830
  C   4.45515699920422     -0.23215440479476     -0.00030633431565
  H   4.29702531364495     -0.20286056516601     -2.14678791618889
  H   4.29432669235005     -0.23148335862799      2.14616136522607
  H   5.53496265904728     -0.32686881636466     -0.00026658186558
  N   -1.68639715418573      1.70982851632609      0.00323277820778
  N   -3.82085520851967      0.61663975868309      0.00149473570474
  H   -4.38962570361027      1.44890488679853      0.00345961269393
  C   -4.26704194694323     -0.68057717080503     -0.00102440546938
  H   -5.32425620373477     -0.89780550205691     -0.00106237498804
