25
Coordinates from ORCA-job mp2_opt
  C   -2.45383947028958      0.58699260750839      0.19661808700562
  C   -2.01068101058411     -0.69441219233823     -0.23155493596774
  C   -0.62646832929139     -0.89419204015560     -0.27964897437612
  C   0.19513503122457      0.16277708925825      0.10013509725450
  C   -0.38645897948367      1.38872142273174      0.49854386830683
  C   -3.17478608309749     -1.46239034098199     -0.51977377652951
  H   -0.19406741299974     -1.83382436274365     -0.61083782481083
  H   0.26253117882043      2.20772752641518      0.79648470990949
  H   -3.22250255353216     -2.48197215553856     -0.86897799179579
  C   1.66386148490487      0.03927213000044      0.04770898014567
  C   2.31814458661429     -0.97221761765087      0.76007843666866
  C   2.42019540260488      0.90129699815680     -0.75459035092989
  C   3.70160324983220     -1.10995598154310      0.68366693893038
  H   1.73500185901773     -1.63888199462605      1.38747399281363
  C   3.80379523228285      0.76399890667139     -0.83033159242202
  H   1.91429451403976      1.67154373292226     -1.32791869741541
  C   4.44784066806019     -0.24162707510796     -0.11134570160951
  H   4.19748024111538     -1.89178279690846      1.24805793985128
  H   4.37815667483151      1.43595173192964     -1.45826373574993
  H   5.52482771604428     -0.34817565488905     -0.17052120363030
  N   -1.69925925461547      1.62325406013668      0.55838561999027
  N   -3.82294379417563      0.57964939798491      0.16771349961396
  H   -4.39934663528725      1.36649525828114      0.42205904433777
  C   -4.25667857027939     -0.64882832421362     -0.26176474211332
  H   -5.31161174575706     -0.85797032529968     -0.35275868747767
