25
Coordinates from ORCA-job mp2_opt
  C   -2.44822798796152      0.59192778525738     -0.20636472597167
  C   -2.02401155861091     -0.68970424201645      0.23977907621490
  C   -0.64262299839466     -0.90280355456799      0.30787094510172
  C   0.19483758608257      0.14182794954694     -0.07148784516125
  C   -0.36883355264655      1.36973551360886     -0.48937413701473
  C   -3.19964484634843     -1.44294056728323      0.51991012920321
  H   -0.22433627031535     -1.84381807015905      0.65302983657831
  H   0.29233959426970      2.17872996843872     -0.78775146736429
  H   -3.26248714025297     -2.45850644917377      0.87830184370028
  C   1.66172089377718      0.00436082076160     -0.00430805439631
  C   2.42432495141601      0.89259316260358      0.76264866990259
  C   2.31639635479129     -0.98833440840301     -0.74241563450396
  C   3.81116485258186      0.77583893345228      0.80807690323363
  H   1.92069799136656      1.66283333701826      1.33797215432303
  C   3.70309647441463     -1.10553193279551     -0.69628521104163
  H   1.72989233068411     -1.66106743261547     -1.36012252544078
  C   4.45382140197927     -0.22366635394182      0.07938771297997
  H   4.39004773680665      1.46376866860642      1.41418968334524
  H   4.19838444629065     -1.87727416656564     -1.27489710228539
  H   5.53345169355480     -0.31296568452123      0.11360545949934
  N   -1.67832612785747      1.61673827959603     -0.56846345622570
  N   -3.81759900079669      0.59884240804477     -0.19551238283825
  H   -4.38244841931063      1.38913133917363     -0.46468332942105
  C   -4.26963227204338     -0.62091076009679      0.23996312527724
  H   -5.32777313347672     -0.81826854396850      0.31928233230554
