25
Coordinates from ORCA-job mp2_opt
  C   -2.45597773083954      0.62309453905903      0.12027064852291
  C   -2.03064368342362     -0.70509442510411     -0.14931067603459
  C   -0.65114307711591     -0.91947634305067     -0.22318911621558
  C   0.19726633353086      0.17119767200698     -0.03913004903376
  C   -0.37387875385435      1.43619253401600      0.24682728305666
  C   -3.20595378484712     -1.49839728272901     -0.28642706533844
  H   -0.25148549021666     -1.90051297332037     -0.45889923840032
  H   0.27549008890851      2.28111964800016      0.45101534916546
  H   -3.26850958479861     -2.55514608864962     -0.49478038176813
  C   1.66441998445442      0.01474615056246     -0.05304214135586
  C   2.25901908137371     -1.19382300267843      0.33607455610592
  C   2.50446545244058      1.08690764225183     -0.38603332027969
  C   3.64294197534202     -1.33611424448048      0.36128165625581
  H   1.63379513002364     -2.02139638065380      0.65192499816466
  C   3.88872248715727      0.94650924959929     -0.35906870541351
  H   2.07339073116455      2.02638030218949     -0.71268633025810
  C   4.46491287744834     -0.26572153889660      0.01426241438760
  H   4.07956121232695     -2.28001125116991      0.66809097735681
  H   4.51765095820040      1.78614498802769     -0.63288296421302
  H   5.54307759998554     -0.37478539996596      0.03598504921031
  N   -1.68198174250120      1.68691146106207      0.32467810783350
  N   -3.82478151552709      0.62229601131873      0.14322095630301
  H   -4.39027692681781      1.43865836514150      0.31618621705067
  C   -4.27611597380200     -0.65066559906354     -0.09966033756618
  H   -5.33401364861291     -0.86337803347271     -0.12225688753617
