25
Coordinates from ORCA-job mp2_opt
  C   -2.45445750695261      0.59676559524660      0.15834063610405
  C   -2.01333839264066     -0.70989073971078     -0.18813249540359
  C   -0.62859845300870     -0.91213651297734     -0.23068299417426
  C   0.19295146980776      0.16745338672521      0.07529791107228
  C   -0.38555837096543      1.41642848416923      0.39575262555506
  C   -3.17887635983257     -1.49659678669593     -0.41282454888189
  H   -0.19703021112169     -1.87380493473466     -0.49185185655622
  H   0.26536047340352      2.25543656124387      0.62573218382050
  H   -3.22823628648485     -2.53748708005919     -0.69200487179895
  C   1.66622238563702      0.04089950581765      0.02928274775269
  C   2.35918172332288     -0.57932284653051      1.07389541822069
  C   2.38184104447466      0.51033130029095     -1.07708508285623
  C   3.74432127012274     -0.71662709908509      1.01903126247155
  H   1.80458675316921     -0.94699828283726      1.93119719327877
  C   3.76707018972537      0.37445052346696     -1.13115932213465
  H   1.84437557021254      0.98243962823239     -1.89326347468414
  C   4.45103192960575     -0.23908548487169     -0.08319603100220
  H   4.27163632423371     -1.19506598293985      1.83678777344640
  H   4.31175267239261      0.74312822445682     -1.99313186844824
  H   5.52899458516325     -0.34443183981734     -0.12533265816431
  N   -1.69874865475360      1.65464434147472      0.44633778026964
  N   -3.82398051079175      0.58667653058848      0.14128615803116
  H   -4.39921518478525      1.38791361858131      0.34905550979657
  C   -4.25960514297804     -0.66828259729248     -0.20056713767756
  H   -5.31499831695588     -0.88407651274208     -0.26763585803709
