20
Coordinates from ORCA-job mp2_opt
  C   -0.47622898419988      0.01867848091675      0.00545236384938
  C   -1.20694189875502      1.13719535634651     -0.41292763587349
  C   -1.17278410583630     -1.12654061078411      0.41047283919426
  C   -2.59975719079167      1.12111486267830     -0.40205258162981
  H   -0.67089104226282      2.01842998825071     -0.74977893220162
  H   -0.61048730119144     -1.99787194580683      0.72970820475864
  C   -3.28277336955707     -0.02104906220538      0.01178429089532
  H   -3.15201628066875      1.99589112107159     -0.72715140308893
  H   -4.36670678405652     -0.03581876891691      0.01667899510835
  C   1.82852361140342     -0.77982895997687     -0.84828891412320
  H   1.49922077156457     -1.47110856816427     -1.60904592710901
  C   -2.56510664431876     -1.14561550422445      0.41643556621602
  H   -3.09073360278257     -2.03780077070568      0.73842349242788
  C   3.13988567319881     -0.49629677540654     -0.51687915012525
  H   4.06957018008598     -0.87349171305570     -0.91140605033833
  C   1.82807282416026      0.76179808563685      0.79797557898231
  H   1.59370565064323      1.46865648170197      1.57827892462302
  N   3.11831396799111      0.43774574390473      0.48214484211413
  H   3.93468392741034      0.82690009965205      0.92501808615298
  C   0.99301159796308      0.02224545908728     -0.02675158983267
