20
Coordinates from ORCA-job mp2_opt
  C   -0.47199362100993      0.00441730981875     -0.00581836611629
  C   -1.19473599401762      1.18813835738115     -0.20774487462848
  C   -1.18811861693702     -1.18191331759151      0.20707315434456
  C   -2.58641705671967      1.18515965141162     -0.20353173290939
  H   -0.65837093311604      2.11243093548299     -0.39321126372281
  H   -0.64708174864073     -2.10187945538184      0.40264590687383
  C   -3.28606758184511     -0.00327204880116     -0.00160408056265
  H   -3.12588123648768      2.11202685995671     -0.36457265150413
  H   -4.37000124652369     -0.00615277458310      0.00023700580628
  C   1.84049919847463      1.11058391635192      0.30777264255419
  H   1.53277529753863      2.09720683420632      0.61794608612238
  C   -2.57949148325729     -1.18773816074773      0.20160018297056
  H   -3.11356179701100     -2.11639800372026      0.37029388132794
  C   3.14649149347989      0.67765645438143      0.19464413073668
  H   4.08064767126001      1.18965350966849      0.36020623693206
  C   1.81986966925963     -1.06054300870750     -0.30310951824217
  H   1.58648013161035     -2.06247128764280     -0.62677386352724
  N   3.11266273474940     -0.63834940730322     -0.17774366853812
  H   3.92332620340637     -1.20954902271999     -0.35305660145224
  C   0.99009491578686      0.01487365853973     -0.00604060646497
