20
Coordinates from ORCA-job mp2_opt
  C   -0.47480068349419      0.00276970823353      0.04749774691662
  C   -1.17142875911503      1.14167542010928     -0.37616145937804
  C   -1.20583084643629     -1.13294141588006      0.41724838088293
  C   -2.56312987129931      1.15042476615638     -0.41127518432522
  H   -0.60961080953490      2.01734126987010     -0.68431979321315
  H   -0.67094522868812     -2.01538835576894      0.75316139466816
  C   -3.28099956284733      0.01524207308434     -0.03738762306142
  H   -3.08821728097877      2.03991252491997     -0.74155231904244
  H   -4.36458681376204      0.02143113001248     -0.06712195326037
  C   1.85525009645238      0.90615733749912      0.70918472785269
  H   1.55292530382328      1.71322856921823      1.35914786130719
  C   -2.59788603173589     -1.12744135594317      0.37504186905170
  H   -3.14985444828318     -2.01307766834310      0.66985789697948
  C   3.15493732341686      0.55648865387856      0.39653161471954
  H   4.09771994719989      0.98006443631027      0.70314596563607
  C   1.79967669330032     -0.88494786540276     -0.66098961037685
  H   1.53900335891180     -1.70159748146965     -1.31573788916010
  N   3.09981722996803     -0.52861796986814     -0.43499633644782
  H   3.90106939770199     -0.99142514824715     -0.83240348174193
  C   0.99184598540050     -0.01091162836930      0.05289519199297
