20
Coordinates from ORCA-job mp2_opt
  C   -0.47310236414093      0.00239383574191     -0.00857060397361
  C   -1.19503780883962      1.15710433776426     -0.33815365900365
  C   -1.18315552287876     -1.16019499339378      0.31873923529227
  C   -2.58701496855483      1.15686853315533     -0.31668536986573
  H   -0.65375381784657      2.05214032192007     -0.62770235239299
  H   -0.63280447470502     -2.05688898685476      0.58411659906711
  C   -3.28256614038518     -0.00434986915535      0.01626273731497
  H   -3.12997028467932      2.05946947034393     -0.57465977376468
  H   -4.36649867160103     -0.00675179547786      0.02774170234291
  C   1.83864243957880     -1.02418519721075     -0.53186413077210
  H   1.52398236667307     -1.92835750334052     -1.03049785658172
  C   -2.57501833236731     -1.16365758223480      0.33074867287970
  H   -3.10874002164488     -2.07086828203833      0.59180071507651
  C   3.14497357607875     -0.63192956528806     -0.31358716877725
  H   4.08011247948503     -1.10711494922725     -0.56248048982211
  C   1.81643703633135      0.98298463032063      0.49799905061268
  H   1.57391247801383      1.90142482063400      1.00910093373611
  N   3.11011210118872      0.58433266031117      0.31266343056442
  H   3.92061071473173      1.10409708593040      0.60765368958628
  C   0.99024121556218     -0.00155097190027     -0.02859036151910
