20
Coordinates from ORCA-job mp2_opt
  C   -0.47362276525011      0.00706712111760      0.00629176744534
  C   -1.19847891943899      1.15145574685768      0.36331936515297
  C   -1.17936070185763     -1.15078692860706     -0.34559503724602
  C   -2.59066871280698      1.14706917606761      0.34246834270564
  H   -0.65880612195257      2.04156170325115      0.67047558365016
  H   -0.62498809463762     -2.03980843364305     -0.62800123719800
  C   -3.28220834009924     -0.00867948063860     -0.01668467139608
  H   -3.13676167762449      2.04154965772195      0.62122707425234
  H   -4.36614068725849     -0.01438837997776     -0.02788421171202
  C   1.83594209901677     -0.99165458948209      0.58915064917495
  H   1.51770521845496     -1.86689043155477      1.13497112620806
  C   -2.57127671745166     -1.15840872923889     -0.35775425031915
  H   -3.10234126569193     -2.06125998409863     -0.63856956303580
  C   3.14336480232160     -0.61593169794527      0.34847130245451
  H   4.07742609705491     -1.07940601504387      0.62226691748177
  C   1.81856625197333      0.95522763799201     -0.55058399452666
  H   1.57740918677877      1.84554896336663     -1.10983712708927
  N   3.11139945699824      0.56351885125803     -0.34447255627767
  H   3.92321152812899      1.06489250662389     -0.66648096332774
  C   0.99057236334212      0.00474730597344      0.03178648360268
