20
Coordinates from ORCA-job mp2_opt
  C   -0.47692317141572      0.01793152621757      0.00549345981285
  C   -1.20631126299425      1.14391018519843     -0.39411566601467
  C   -1.17430728635059     -1.13293161811555      0.39207106837712
  C   -2.59923185106508      1.12837198273482     -0.38521112329605
  H   -0.66922436398231      2.03120147821851     -0.71280861420274
  H   -0.61265087085775     -2.01025784877042      0.69557576954537
  C   -3.28326433107897     -0.01977705361685      0.00993372824368
  H   -3.15069084432893      2.00916204030444     -0.69504820032606
  H   -4.36722038732396     -0.03370192816390      0.01424635032160
  C   1.82970388607365     -0.68405695505641     -0.92802888629235
  H   1.50081997224971     -1.29177760489167     -1.75719001875210
  C   -2.56677578237001     -1.15114404096097      0.39718254052204
  H   -3.09325663957315     -2.04807534493534      0.70423866856280
  C   3.14101877046392     -0.43727964335648     -0.56751716714523
  H   4.07093704520608     -0.77064500522442     -0.99923200162624
  C   1.82795441016127      0.66986976748495      0.87558117614096
  H   1.59297015043651      1.29131861465619      1.72523040866821
  N   3.11859268336524      0.38321076878304      0.52657806511732
  H   3.93463188849016      0.72422495807780      1.00800892693230
  C   0.99359898489418      0.02256872141628     -0.02369048458879
