20
Coordinates from ORCA-job mp2_opt
  C   -0.47196968065857      0.00381668519309      0.02072903100141
  C   -1.19782653538816      1.19653094014811      0.14395117320533
  C   -1.18913285379826     -1.19186568237243     -0.12912440942579
  C   -2.58939993454570      1.19357580812416      0.12905741892243
  H   -0.66681635796722      2.13257153309795      0.27604471050445
  H   -0.65184605209584     -2.12477677706070     -0.26209274728608
  C   -3.28885209575726     -0.00371235483891     -0.00913480636641
  H   -3.12859210204927      2.12926113657988      0.22808687649227
  H   -4.37270185995325     -0.00668582939149     -0.02008623794632
  C   1.84063582036579      1.13587880897087     -0.19300706778449
  H   1.53604926962360      2.15011170218710     -0.39852110245110
  C   -2.58017115585025     -1.19748374985597     -0.13613307651374
  H   -3.11221427181650     -2.13518556015526     -0.25337262329816
  C   3.14701436941143      0.69460606690496     -0.13615343503275
  H   4.07959145871173      1.22165165113913     -0.25724733020268
  C   1.82432602356985     -1.08398094377885      0.20036695088054
  H   1.59834785221839     -2.11522625332361      0.41963369323747
  N   3.11586574823400     -0.65152049633031      0.10410597232230
  H   3.92740553264771     -1.23804659062739      0.21197452165744
  C   0.99072682509776      0.01544690538966      0.02244548808388
