20
Coordinates from ORCA-job mp2_opt
  C   -0.47479238457494      0.01460247744298      0.00203187039951
  C   -1.20399575437354      1.14016883724099     -0.40118318728847
  C   -1.17417945804501     -1.13400602530151      0.39350086140124
  C   -2.59653414618453      1.12826676037264     -0.38573265653364
  H   -0.66693215323690      2.02226246975060     -0.73448566991209
  H   -0.61437085242962     -2.00983878737076      0.70484249448699
  C   -3.28214277663107     -0.01729592067342      0.01451429951061
  H   -3.14689787874935      2.00828605719240     -0.69975183376910
  H   -4.36606979866855     -0.02912676773812      0.02179047886491
  C   1.83050489345407     -0.90741516966588     -0.70976598044851
  H   1.50485694243860     -1.70958325331064     -1.35452169219728
  C   -2.56630896584346     -1.14918567952678      0.40189060526280
  H   -3.09352431856007     -2.04404314106304      0.71374562231265
  C   3.14046794704553     -0.57024875391351     -0.42779946033264
  H   4.07164340730058     -1.00149822646851     -0.75823719783543
  C   1.82436805150173      0.88051406524189      0.66567543706909
  H   1.58748920805566      1.69853685532156      1.32770837114114
  N   3.11541488820158      0.51319869079225      0.40725537659261
  H   3.93027087754918      0.96757906549679      0.78626820201386
  C   0.99161827175011      0.01560044618008     -0.03050494073825
