20
Coordinates from ORCA-job mp2_opt
  C   -0.47183662110193     -0.00359570957638      0.00003933477464
  C   -1.19328642893920      1.19904480101524      0.00003040974290
  C   -1.19834303281295     -1.20222010540561      0.00003979326669
  C   -2.58397542806398      1.20385428886784      0.00001554676470
  H   -0.66285538852048      2.14486239617600      0.00003820541011
  H   -0.67088031342444     -2.14890892029691      0.00005671835150
  C   -3.29226681797167      0.00327073089646      0.00001153542585
  H   -3.11604366298855      2.14882043888208      0.00000020599454
  H   -4.37610351470694      0.00600331809956     -0.00000639334451
  C   1.84467279373612     -1.15258080386265      0.00001195921642
  H   1.54705818309046     -2.18908850896737      0.00001514240184
  C   -2.58993471758432     -1.19985336036598      0.00002965706195
  H   -3.12647016292199     -2.14226424924518      0.00003211091616
  C   3.15042774947627     -0.70709867567010     -0.00000318810215
  H   4.08349981020657     -1.24694277989526     -0.00001980775657
  C   1.82579042838802      1.10089483713595      0.00002133836559
  H   1.60272428280337      2.15553063012821      0.00002154255874
  N   3.11788809310673      0.65992677995631      0.00000777097729
  H   3.92844676597048      1.25765979162479     -0.00006241936036
  C   0.99181098225843     -0.01321689949702      0.00003353733469
