20
Coordinates from ORCA-job mp2_opt
  C   -0.47565335419656      0.01666993650935     -0.00494514122866
  C   -1.20563130879383      1.13649448286254      0.41205557615099
  C   -1.17355762279385     -1.12853557521529     -0.40828920367752
  C   -2.59831418945544      1.12249885730140      0.39915090239586
  H   -0.66882692210026      2.01639579985007      0.75136980692577
  H   -0.61237875539079     -2.00059562263383     -0.72763318122042
  C   -3.28252099423921     -0.01953821110619     -0.01318215490145
  H   -3.14975736592575      1.99817090280877      0.72328415980920
  H   -4.36647142206008     -0.03298497614351     -0.01881248715276
  C   1.82934901356562     -0.85170499024951      0.77597468946882
  H   1.50189731171193     -1.60573168486250      1.47554154986751
  C   -2.56579802567996     -1.14581724277427     -0.41489212915617
  H   -3.09238119572518     -2.03787261578976     -0.73572612273816
  C   3.14007141207594     -0.53774740482231      0.47122406391287
  H   4.07061693569489     -0.94506570462547      0.83237814086466
  C   1.82651078225580      0.82856866206278     -0.72878158766968
  H   1.59142873727211      1.59765417140923     -1.44766228494041
  N   3.11702601841601      0.48073557326401     -0.44166003748394
  H   3.93281347194629      0.90580450315915     -0.85139256766015
  C   0.99238647342232      0.01889413899534      0.02882100843365
