20
Coordinates from ORCA-job mp2_opt
  C   -0.47260718699968      0.00589619998662     -0.02637677290062
  C   -1.18531454164641      1.17124235926879      0.28578017893093
  C   -1.19330110442029     -1.16132480670700     -0.31276141250385
  C   -2.57701739488184      1.17076939250031      0.30557853597140
  H   -0.63778116976615      2.07515571949003      0.53148902843442
  H   -0.65244521347929     -2.06278234509260     -0.58244469394661
  C   -3.28285136540835      0.00197481228121      0.02427991115353
  H   -3.11182267962626      2.08165442184035      0.55118523030486
  H   -4.36667990148866      0.00102113406558      0.04242293388763
  C   1.84713286340283      1.05041693900603     -0.47338063137067
  H   1.54147457921340      1.98147900756533     -0.92587773833423
  C   -2.58492879695551     -1.16488550966358     -0.28318832017506
  H   -3.12593694181829     -2.07659606963916     -0.51155955051985
  C   3.15002370564350      0.64023093592562     -0.26926493050450
  H   4.08884005880312      1.12362798790888     -0.48645404065422
  C   1.80901519246422     -1.00964327654038      0.44569391696707
  H   1.56037718951195     -1.95283630943450      0.90619569455546
  N   3.10553511275128     -0.60811397831748      0.28972921842500
  H   3.91155310505394     -1.14666908736093      0.56242935916864
  C   0.99014448964649      0.00738047291688     -0.02902691688936
