20
Coordinates from ORCA-job mp2_opt
  C   -0.47210190689400      0.00511044017337      0.00445900400276
  C   -1.19231318188293      1.18315832023103     -0.23549380373002
  C   -1.18886707405303     -1.17556560021969      0.24381689270537
  C   -2.58405153660223      1.18043521490338     -0.23890427794815
  H   -0.65269794856715      2.10102760777641     -0.44304135298226
  H   -0.64701702403955     -2.08903623710313      0.46637707275844
  C   -3.28491289864096     -0.00230949099877     -0.00894889011869
  H   -3.12273282464213      2.10216981290174     -0.42936717268431
  H   -4.36885395890881     -0.00494125361989     -0.01350838256548
  C   1.84206620862351      1.09379854434381      0.36332172366831
  H   1.53435779629771      2.06399063830572      0.72202378482984
  C   -2.58036941164294     -1.18119781357070      0.23040264573542
  H   -3.11616582192630     -2.10467196511162      0.42068923933330
  C   3.14727670901235      0.66675745311448      0.22019303762644
  H   4.08284627660919      1.16999630051771      0.40370160521673
  C   1.81654635239609     -1.04578360984530     -0.35126564218403
  H   1.57820921490646     -2.03017823506811     -0.72197630358579
  N   3.11047283800777     -0.62996662732567     -0.21499380203192
  H   3.91990752503772     -1.19168076490017     -0.42338094529117
  C   0.98998266690922      0.01347426549541      0.00520756724520
