20
Coordinates from ORCA-job mp2_opt
  C   -0.47214477576763     -0.00591078090651     -0.01059426989028
  C   -1.18840309276700      1.17548013781362     -0.24784629099296
  C   -1.19275918620102     -1.18291510681997      0.23327588290828
  C   -2.57989124532964      1.18210687850619     -0.23202199743926
  H   -0.64621755959183      2.08848226360456     -0.47152765003002
  H   -0.65337211805729     -2.10086690154806      0.44107351116485
  C   -3.28489435749183      0.00393694147306      0.00951880157199
  H   -3.11535590565249      2.10598138600233     -0.42130253164088
  H   -4.36882404745874      0.00741416514548      0.01615881357607
  C   1.84244129615924     -1.09448984530674     -0.36714847007036
  H   1.53513249861454     -2.06414020623367     -0.72767591661638
  C   -2.58450044744809     -1.17919062311351      0.23910464036299
  H   -3.12353023712243     -2.10021502377154      0.43200552175732
  C   3.14748911530901     -0.66800132377268     -0.22081217785664
  H   4.08331407087972     -1.17119316865903     -0.40314677262643
  C   1.81603867724132      1.04412657476782      0.35033715575177
  H   1.57721397766258      2.02798976532572      0.72214465098341
  N   3.11012926552705      0.62811368523369      0.21614592680275
  H   3.91930558959885      1.18935263846733      0.42681019571366
  C   0.98994748189568     -0.01446945620810     -0.00915002342989
