20
Coordinates from ORCA-job mp2_opt
  C   -0.47479423440170      0.01465618276887     -0.00195349126272
  C   -1.20390823154324      1.14030138403425      0.40121252596116
  C   -1.17427517981409     -1.13393033152403     -0.39330953913234
  C   -2.59644674719890      1.12849530367608      0.38581502921203
  H   -0.66676134542344      2.02237396675315      0.73443615952058
  H   -0.61454957010271     -2.00983154564581     -0.70460871349778
  C   -3.28215086919325     -0.01704749099718     -0.01432806976216
  H   -3.14674272464114      2.00857218105255      0.69979143065705
  H   -4.36607872178614     -0.02879940844932     -0.02156787939475
  C   1.83054613121660     -0.90741985144249      0.70972776366836
  H   1.50494907242674     -1.70956601029683      1.35453595652993
  C   -2.56640667917199     -1.14901351522456     -0.40164682841349
  H   -3.09368768006505     -2.04386151725828     -0.71341759193307
  C   3.14049007479640     -0.57028124831972      0.42764245562509
  H   4.07167421373886     -1.00154855375918      0.75803260025670
  C   1.82432920303642      0.88043426674448     -0.66580900487873
  H   1.58739296042511      1.69840815018939     -1.32788177552494
  N   3.11539130906452      0.51311277924081     -0.40747713908020
  H   3.93022375570669      0.96754404566593     -0.78647922391640
  C   0.99161926293030      0.01558821279189      0.03050433536568
