20
Coordinates from ORCA-job mp2_opt
  C   -0.47624509881755     -0.00087248495496      0.04203778980084
  C   -1.17083982571706      1.13400154927124     -0.39437675000783
  C   -1.20821143444230     -1.12953265990165      0.42958090441643
  C   -2.56288306643758      1.14609151657458     -0.42494787055966
  H   -0.60718375001933      2.00523777159099     -0.71143354573667
  H   -0.67358044834918     -2.01067894957613      0.76892873699049
  C   -3.28198535091407      0.01834044091521     -0.03172546040384
  H   -3.08703747540800      2.03251282375548     -0.76475973003414
  H   -4.36568614823796      0.02709670725640     -0.05733921969068
  C   1.85499411082924      0.77686420714785      0.84946596207578
  H   1.55026166073672      1.47100431853588      1.61781029756211
  C   -2.60071595276011     -1.12043818672217      0.39401628102482
  H   -3.15405968181763     -2.00080622478564      0.70169376966168
  C   3.15568415033619      0.48157738817784      0.48752119344355
  H   4.09775212237023      0.85002057387157      0.86038632810950
  C   1.80208161927327     -0.76364838393394     -0.79696321934024
  H   1.54263101374559     -1.46733212032018     -1.57216906045133
  N   3.10217552381394     -0.45163537592742     -0.51110429963863
  H   3.90435425722234     -0.84785173780800     -0.97325727597583
  C   0.99326577459325     -0.01697917316695      0.04723816875365
