20
Coordinates from ORCA-job mp2_opt
  C   -0.47424869220089      0.01119911371823      0.00264530882823
  C   -1.20152653457208      1.14561217233280      0.38478919731873
  C   -1.17640001565468     -1.14174302063594     -0.37129597497158
  C   -2.59391132448474      1.13724214095362      0.36617121718736
  H   -0.66323996990441      2.03117380529167      0.70697684726995
  H   -0.61879658334554     -2.02356035663680     -0.66951849330105
  C   -3.28207762096248     -0.01303050959894     -0.01602768720082
  H   -3.14254482979760      2.02389259308554      0.66424256609800
  H   -4.36601709813909     -0.02193593788042     -0.02568412770737
  C   1.83325171447846     -0.95314451342485      0.64847486242538
  H   1.51146195029610     -1.79476947045176      1.24292888444282
  C   -2.56839765153545     -1.15332515734942     -0.38218470145088
  H   -3.09732609603547     -2.05178502073550     -0.68053989513109
  C   3.14187512555792     -0.59568039482818      0.38665376829773
  H   4.07468096338164     -1.04461059146035      0.68764295133344
  C   1.82127394739186      0.92135569456761     -0.60666775722949
  H   1.58218413387580      1.77860635367048     -1.21620848110329
  N   3.11319380005127      0.53987521442653     -0.37599521230520
  H   3.92650075435365      1.01946455081046     -0.72618953139778
  C   0.99106802724575      0.01041633414522      0.03212525859690
