20
Coordinates from ORCA-job mp2_opt
  C   -0.47772042353846     -0.00062682100097      0.02579789646216
  C   -1.18002903825520      1.15900361893480     -0.32324055418482
  C   -1.20173210298327     -1.15497890707572      0.34598714780484
  C   -2.57266540832387      1.16683735149964     -0.34255297294266
  H   -0.62232103511443      2.05353554190133     -0.58021536683199
  H   -0.66050112787150     -2.05556108616050      0.61673735479383
  C   -3.28377023422469      0.01224778933604     -0.01947516671568
  H   -3.10337368246288      2.07233674282885     -0.61531377785963
  H   -4.36772491709952      0.01771780457036     -0.03586980826991
  C   1.85150144074649      0.53236957416780      1.02368739079662
  H   1.54174976998482      1.00857883426235      1.94145456606668
  C   -2.59461461577331     -1.14923800173723      0.32439782227759
  H   -3.14202811146629     -2.05070296301420      0.57667715176596
  C   3.15492456495665      0.32958801492128      0.61024674502296
  H   4.09478083667092      0.58211406756134      1.07408743686397
  C   1.80841691451365     -0.52103027195497     -0.96956833839308
  H   1.55421917024922     -1.00317985837826     -1.90030619083254
  N   3.10735118928409     -0.30871894669882     -0.59846297722681
  H   3.91237627899080     -0.57924354808914     -1.13941925725744
  C   0.99439253171681     -0.01077993587397      0.03055089865995
