20
Coordinates from ORCA-job mp2_opt
  C   -0.47424375334210      0.01120769186947     -0.00266720889745
  C   -1.20148887957399      1.14563762588891     -0.38482472778642
  C   -1.17643161499187     -1.14171418080387      0.37126224924634
  C   -2.59387373998858      1.13730427473134     -0.36623041304455
  H   -0.66317683163733      2.03118550399394     -0.70700609564670
  H   -0.61886376526058     -2.02354744133269      0.66950104676749
  C   -3.28207699262170     -0.01295187101535      0.01595510459809
  H   -3.14247464197754      2.02397080959610     -0.66431216815760
  H   -4.36601622936554     -0.02182890356416      0.02559385609436
  C   1.83326105737907     -0.95316601707351     -0.64843934778668
  H   1.51147395820741     -1.79477993531991     -1.24290956907794
  C   -2.56843002190177     -1.15326253985980      0.38212503387927
  H   -3.09738205648305     -2.05171126902462      0.68046999672849
  C   3.14187968591433     -0.59570761640966     -0.38659301266008
  H   4.07468063327169     -1.04464685069561     -0.68758307590708
  C   1.82126799225766      0.92132114576162      0.60672087168454
  H   1.58215750905192      1.77857167533922      1.21625347368326
  N   3.11319333140231      0.53984503199868      0.37606312520866
  H   3.92649581258273      1.01940370044071      0.72630869282506
  C   0.99106954707694      0.01040116547920     -0.03210683175106
