20
Coordinates from ORCA-job mp2_opt
  C   -0.47258251246612     -0.00148398989358     -0.00981718372748
  C   -1.19183834109212      1.16308589226345     -0.31019098114056
  C   -1.18680560137127     -1.16876490136477      0.29120119843554
  C   -2.58365072500179      1.16613951193324     -0.28997595134666
  H   -0.64952294786779      2.06364178253252     -0.57994350690690
  H   -0.64061141644219     -2.07292960008558      0.53897501100461
  C   -3.28311421155668     -0.00065399127240      0.01431286797012
  H   -3.12349235123500      2.07649550051134     -0.52639772797131
  H   -4.36704802139655     -0.00034837214937      0.02468252864886
  C   1.84037892021236     -1.05150499533246     -0.47598579432672
  H   1.52828113792399     -1.98045861618116     -0.92843509960387
  C   -2.57864149490648     -1.16882129517825      0.30163341072678
  H   -3.11468097856844     -2.08054801923719      0.54137443990250
  C   3.14610397643930     -0.64510466015333     -0.28205503115360
  H   4.08169612405615     -1.13049123295115     -0.50855490368482
  C   1.81538946272773      1.00624750367097      0.44871196606025
  H   1.57270862986851      1.94905958491795      0.91317957472841
  N   3.10956444440594      0.60173442803881      0.28097195679100
  H   3.91926599047569      1.13767894903782      0.54785938598786
  C   0.99000091579476     -0.00710947910685     -0.02267016039400
