20
Coordinates from ORCA-job mp2_opt
  C   -0.47196432007692      0.00392551749797     -0.01455163716450
  C   -1.19654486278552      1.19259180375535     -0.17754561597364
  C   -1.18826149319875     -1.18743586411899      0.16876283510852
  C   -2.58816630434950      1.18959781084923     -0.16688876918243
  H   -0.66303978146856      2.12296905997353     -0.33811871483946
  H   -0.64879189780677     -2.11398666067441      0.33452349107089
  C   -3.28737743909338     -0.00368438672695      0.00474299459550
  H   -3.12776071486278      2.12118739000924     -0.29732439135930
  H   -4.37127283903086     -0.00663419872359      0.01204945882474
  C   1.83997547980788      1.12455754672980      0.25107581867551
  H   1.53325750199839      2.12590441158938      0.51035856546422
  C   -2.57947117202816     -1.19319419586701      0.17036960162169
  H   -3.11230866219452     -2.12662834582930      0.31488424102082
  C   3.14636302624967      0.68697573846531      0.16703273362156
  H   4.07947164974853      1.20699588078758      0.31215510454218
  C   1.82254225996217     -1.07330703595516     -0.25311051594493
  H   1.59338279499433     -2.09090953356831     -0.52667598891974
  N   3.11449808942252     -0.64552011100787     -0.14057931923342
  H   3.92588740249578     -1.22493439092106     -0.28251079397578
  C   0.99034128221647      0.01543156373527     -0.01562009795243
