20
Coordinates from ORCA-job mp2_opt
  C   -0.47695502488615     -0.00298652436766     -0.03782192192355
  C   -1.17286737190466      1.13960704586440      0.37512009273237
  C   -1.20725535302791     -1.13833821968081     -0.40790653191491
  C   -2.56511605275312      1.15162207348585      0.40249041185015
  H   -0.61017914585402      2.01741814864776      0.67526459372083
  H   -0.67121458138310     -2.02601418901929     -0.72730037243590
  C   -3.28265060054174      0.01678602729902      0.02740796208497
  H   -3.09050310603565      2.04404998007513      0.72418467215136
  H   -4.36642131678035      0.02538731310544      0.05046944693554
  C   1.85411399685148      0.67978942819825     -0.93098577234149
  H   1.54768472809258      1.28783082662925     -1.76845101144543
  C   -2.59993777922270     -1.12898803657823     -0.37669152831122
  H   -3.15220121337346     -2.01511791205568     -0.66938573609230
  C   3.15567782979183      0.42413490301010     -0.54231817935356
  H   4.09705080687234      0.74917907167008     -0.95516108665243
  C   1.80403591848193     -0.66853401991704      0.87613704701779
  H   1.54616033793471     -1.28527651835479      1.72256879574409
  N   3.10381559775760     -0.39271209633961      0.55354370483623
  H   3.90686989309240     -0.73826857956095      1.05324595741919
  C   0.99380243688798     -0.01793072211123     -0.04256854402173
