20
Coordinates from ORCA-job mp2_opt
  C   -0.47360404640306      0.00702855616253     -0.00623781778448
  C   -1.19845322128218      1.15142262053340     -0.36325884494087
  C   -1.17935351264225     -1.15080887784481      0.34566246520075
  C   -2.59064311169185      1.14704212297448     -0.34240977813607
  H   -0.65878711064802      2.04153141923613     -0.67041575540906
  H   -0.62498581276871     -2.03983206633307      0.62807202706794
  C   -3.28219077100188     -0.00869768479427      0.01674783657583
  H   -3.13671558149940      2.04153330256452     -0.62117045754477
  H   -4.36612212969587     -0.01440774430687      0.02795194913997
  C   1.83596852223083     -0.99168046250809     -0.58911519428488
  H   1.51774332184151     -1.86686487766860     -1.13502339620677
  C   -2.57126834242803     -1.15842318214924      0.35783165526082
  H   -3.10234423894016     -2.06126316445526      0.63865562370012
  C   3.14338349801019     -0.61595485391424     -0.34841948600860
  H   4.07744804915412     -1.07938714364032     -0.62227404271057
  C   1.81857589431976      0.95515806732078      0.55068828939999
  H   1.57739597691721      1.84547624231038      1.10993652403333
  N   3.11141479553919      0.56351072156016      0.34450943981034
  H   3.92322697968440      1.06458704421167      0.66697890833195
  C   0.99058684130420      0.00469796074071     -0.03170994549496
