20
Coordinates from ORCA-job mp2_opt
  C   -0.47306276860321      0.00571353193918      0.03631234947200
  C   -1.18108071880000      1.16433781171873     -0.30918405227607
  C   -1.19665734599635     -1.15388524299744      0.34430425449559
  C   -2.57271257526647      1.16586088139125     -0.33634209682099
  H   -0.62912353833603      2.06083502131200     -0.57185943904554
  H   -0.65733920289888     -2.04994910328667      0.63437055060180
  C   -3.28196645141768      0.00513205495232     -0.03095895007689
  H   -3.10476267934198      2.07119159742988     -0.60715655062367
  H   -4.36569005568021      0.00567348354261     -0.05512879497268
  C   1.84990937588339      1.02307235850427      0.52935988050377
  H   1.54583427371331      1.93031403631268      1.02899185052713
  C   -2.58831824489680     -1.15555812820915      0.30769762936227
  H   -3.13255635923653     -2.06081468858335      0.55336596756939
  C   3.15148758642147      0.62437824553291      0.29518396986843
  H   4.09189313470622      1.09619810169873      0.53024180290821
  C   1.80520461182484     -0.98710530523873     -0.49389867070637
  H   1.55191367710516     -1.90569030780424     -0.99946757763622
  N   3.10297079331032     -0.59366818139823     -0.32672207729892
  H   3.90715102136295     -1.11778215242975     -0.63114462842646
  C   0.99035946614648      0.00297698561298      0.03988758257522
