20
Coordinates from ORCA-job mp2_opt
  C   -0.47788907740804      0.00021105847174      0.00234683865428
  C   -1.19116386415348      1.20439664464441      0.01129257031032
  C   -1.19076435586687     -1.20421329983342     -0.00693551707662
  C   -2.58418228274411      1.20491381824897      0.00716770874726
  H   -0.64204056892060      2.13998004395381      0.02135068931149
  H   -0.64131931971968     -2.13965049680417     -0.01127503962262
  C   -3.28428771855256     -0.00022002469025     -0.00392232868712
  H   -3.12312570728323      2.14591062066509      0.01288226854244
  H   -4.36837122164824     -0.00039132933674     -0.00674306374728
  C   1.83936548321526     -0.01366629068057      1.15351083454772
  H   1.51789107324193     -0.02560763934981      2.18375035365454
  C   -2.58376864777633     -1.20514208248254     -0.01089303275285
  H   -3.12240168827222     -2.14629668723879     -0.01924622079608
  C   3.14779168049661     -0.00863431970950      0.70733321823673
  H   4.08163307341388     -0.01514281485100      1.24598053508610
  C   1.82024304846681      0.01324352791784     -1.10118689778237
  H   1.57751960144560      0.02544771969026     -2.15205990106227
  N   3.11498229363750      0.00765468312710     -0.65967165985090
  H   3.92644532543902      0.01419270618101     -1.25592199865282
  C   0.99468587298874      0.00027716207656      0.01258264294003
