20
Coordinates from ORCA-job opt
  C   1.05491969949159      1.00801628090712     -0.04605291392005
  C   -0.42125542105081      0.99552637353972      0.03569251198769
  N   1.60768980882760      1.52845559183548     -1.15401131196157
  N   1.73529458607266      0.49432839227832      0.99180161864197
  C   -1.06065722642950      0.46575348941969      1.16246077624076
  C   -1.19002612621193      1.51299911189434     -1.01325887431013
  C   -2.44947237927731      0.45519778488536      1.23518739280222
  C   -3.21427306977081      0.97069921133168      0.18982983885867
  H   -2.93751607230836      0.04305952032133      2.11143520230252
  C   -2.57838350784423      1.49871218669687     -0.93278661009136
  H   -4.29680298919256      0.96095659315587      0.24950647592138
  H   -3.16710225383428      1.90132694567990     -1.74959012753033
  C   2.94026856425305      1.52724109344638     -1.22017168421833
  C   3.73369681077931      1.01626646376730     -0.20138526068685
  H   3.37794297350000      1.94966903869724     -2.11988288890507
  C   3.06657393287908      0.50399043390976      0.90361974478749
  H   4.81407818333029      1.01857356927028     -0.26452304802458
  H   3.60792493069611      0.08650216413122      1.74749510628025
  H   -0.45829381772945      0.06757362932031      1.96943343374480
  H   -0.68727362618043      1.92102512551184     -1.88121438191948
