20
Coordinates from ORCA-job opt
  C   1.05594069279911      0.99996319459543     -0.02690413211835
  C   -0.42059847882631      0.99179970907910      0.04745731490326
  N   1.67473966444499     -0.18577516551384     -0.15055065197225
  N   1.67007402618470      2.19361375698781      0.01989794541907
  C   -1.12240294479801     -0.21812840269540     -0.00407947966307
  C   -1.12708714490433      2.19396331404524      0.16879354707459
  C   -2.51155405983083     -0.22144013461682      0.06386641359591
  C   -3.21428332185982      0.97652400229542      0.18414651316392
  H   -3.04849549727293     -1.16262682294001      0.02298276438752
  C   -2.51624607115884      2.18209599200205      0.23612893921005
  H   -4.29722663330151      0.97068228629748      0.23672768807930
  H   -3.05683609828574      3.11740280209828      0.32981189390090
  C   3.00542537792994     -0.16401154558129     -0.24499704576901
  C   3.73233227544630      1.01900495730878     -0.21945611007789
  H   3.49692342722495     -1.12725867815262     -0.34534573995649
  C   3.00082289423605      2.19074781564460     -0.07631062201776
  H   4.81143435895774      1.02698229385251     -0.30111240263693
  H   3.48850617637626      3.16038332272514     -0.03819889972841
  H   -0.56783514822250     -1.14347514294466     -0.09758569197594
  H   -0.57630249513923      3.12542644551277      0.20831475618158
