20
Coordinates from ORCA-job opt
  C   1.05463070350710      1.00659974468404     -0.05193188110534
  C   -0.42128944510444      0.99437515845255      0.03463706918289
  N   1.73478550155112      1.36866356479807      1.04818547844777
  N   1.60748849815846      0.65214075768041     -1.22352516707937
  C   -1.18981403635760      0.62595273055691     -1.07565389759392
  C   -1.06073583082420      1.35086014423212      1.22758969248298
  C   -2.57787483697241      0.61527215670456     -0.98997178849601
  C   -3.21381152676230      0.97038998699407      0.19868359420295
  H   -3.16633694808786      0.32869087619870     -1.85452537405489
  C   -2.44925610108566      1.33757959681021      1.30505116696374
  H   -4.29611833959919      0.96099773856311      0.26228962897365
  H   -2.93728115460754      1.61496035934622      2.23282343535827
  C   3.06609399094902      1.37095785839955      0.95994896371596
  C   3.73341170504365      1.01864172926073     -0.20583354216753
  H   3.60726001397456      1.66479473070625      1.85453415429486
  C   2.94011462574675      0.66199439449146     -1.28839757967901
  H   4.81387048316786      1.02278427694282     -0.26767554745169
  H   3.37783020714597      0.37390693145122     -2.23965594925579
  H   -0.68704960226995      0.35167047256124     -1.99467371044745
  H   -0.45858490757335      1.63464179116575      2.08168725370793
