20
Coordinates from ORCA-job opt
  C   1.05491582076523      1.00583895682361     -0.04710429750922
  C   -0.42125924691021      0.99429250535125      0.03510036828857
  N   1.60766813543801      1.52665516528498     -1.15488267838208
  N   1.73527085383797      0.49239043284768      0.99087627003322
  C   -1.06069252466405      0.46506739635947      1.16211366107755
  C   -1.19006025702560      1.51224951398502     -1.01359803073709
  C   -2.44947214011080      0.45564262380508      1.23536902908764
  C   -3.21430377610638      0.97167110587170      0.19029829443752
  H   -2.93746384332864      0.04392534615952      2.11185121919632
  C   -2.57837993715184      1.49907931277301     -0.93258281941286
  H   -4.29681546371194      0.96282219172286      0.25039774293377
  H   -3.16705487675261      1.90211870500635     -1.74921621376627
  C   2.94030239203087      1.52729768361120     -1.22015185638283
  C   3.73372096923461      1.01786866004367     -0.20061405323874
  H   3.37793415220545      1.95012538421178     -2.11969537132301
  C   3.06660157847495      0.50387100259098      0.90357053146361
  H   4.81415713437853      1.02207790552632     -0.26283544736955
  H   3.60790778578400      0.08660389072808      1.74758336409288
  H   -0.45833264896905      0.06646383587430      1.96888469936014
  H   -0.68731110741853      1.91981338142314     -1.88177741184957
