20
Coordinates from ORCA-job opt
  C   1.05342039967845      1.00342420265124     -0.06955937610999
  C   -0.42195541816035      0.99306907001635      0.02497473259637
  N   1.67323804503879     -0.18246520308258     -0.18603224652248
  N   1.66712434468333      2.19714782609508     -0.01983257281245
  C   -1.12240740040862     -0.21814519630861     -0.01316386550524
  C   -1.12864255719822      2.19433099443137      0.15411727967742
  C   -2.51020938694857     -0.22374636342859      0.07789295438709
  C   -3.21305585707073      0.97324088227874      0.20694038609142
  H   -3.04598927896794     -1.16600802307741      0.04793000476104
  C   -2.51641571780034      2.18018205135199      0.24459051970934
  H   -4.29493981388714      0.96552794846702      0.27777971842435
  H   -3.05706054064961      3.11479423894885      0.34468038025371
  C   3.00589195868946     -0.16241815353682     -0.24707379426315
  C   3.73400126569023      1.01896954588169     -0.19355620207251
  H   3.49818350702828     -1.12596082462493     -0.34049180824209
  C   2.99983426674599      2.19259830034734     -0.08274476150992
  H   4.81517603578816      1.02502324323126     -0.24037492416021
  H   3.48716495117590      3.16228540579282     -0.04139279150693
  H   -0.56751028976390     -1.14257784866089     -0.11358559543477
  H   -0.57851451366315      3.12660090322607      0.18248796223899
