20
Coordinates from ORCA-job opt
  C   1.05505668917018      1.02275004756564     -0.03906712044661
  C   -0.42114725265479      1.00419350236719      0.03990039031767
  N   1.60789481422445      1.54044604066812     -1.14831200323218
  N   1.73553938645265      0.50707920546952      0.99782118856039
  C   -1.06045814148333      0.47174779530223      1.16547233273516
  C   -1.18992350833301      1.51768610879948     -1.01103643526426
  C   -2.44940780316995      0.45401315719112      1.23479821815908
  C   -3.21413033811004      0.96522976794868      0.18729398373352
  H   -2.93755388368078      0.03968495587222      2.10993971829994
  C   -2.57841509521686      1.49623733516790     -0.93400512637993
  H   -4.29675497795432      0.94984729410399      0.24429765316354
  H   -3.16727830075914      1.89549767121204     -1.75233170654546
  C   2.94002078487124      1.52606876360453     -1.22073818541569
  C   3.73325127262911      1.00397703679751     -0.20737822930175
  H   3.37788140039860      1.94589148825003     -2.12159325477618
  C   3.06635532134439      0.50360758671119      0.90329649162350
  H   4.81315671731051      0.99279717174873     -0.27698950204992
  H   3.60788782199667      0.08414890218709      1.74609305348963
  H   -0.45776678483178      0.07697663165997      1.97386934954264
  H   -0.68687612220383      1.92799153737281     -1.87774381621309
