20
Coordinates from ORCA-job opt
  C   1.05539491388331      1.01583045259188     -0.03466359624041
  C   -0.42078781102201      1.00001554929157      0.04536233307823
  N   1.62131228846049      1.94325579312237     -0.82442203896653
  N   1.72245039907663      0.09255617544305      0.67714181530893
  C   -1.17610289764387      1.93024006592047     -0.67807221353160
  C   -1.07354401908372      0.05431814355015      0.84453928936407
  C   -2.56465998329659      1.91078556514742     -0.60170231525800
  C   -3.21378605296121      0.96806773174001      0.19412180952797
  H   -3.14307011757878      2.63435661304565     -1.16536773031753
  C   -2.46246231364276      0.04150494793614      0.91550828175643
  H   -4.29643103849384      0.95542492822149      0.25146616138398
  H   -2.96107477520929     -0.69432746905535      1.53661114398413
  C   2.95267241583024      1.93073550940579     -0.90991912436492
  C   3.73232872746519      1.00948385266470     -0.22278800967143
  H   3.40111009520322      2.68365546219088     -1.55142509970009
  C   3.05278739859227      0.09933241984387      0.57630177846220
  H   4.81165427467954      1.00452742485411     -0.30157409832080
  H   3.58343276640362     -0.65112141170248      1.15487794727888
  H   -0.66270043611449      2.65849425052771     -1.29341769173727
  H   -0.48118883454796     -0.66126100473945      1.40100635796377
