20
Coordinates from ORCA-job opt
  C   1.05453581845038      1.00881833700187     -0.05262590718000
  C   -0.42134117025872      0.99562214507145      0.03424835882475
  N   1.73472073386034      1.37043441172875      1.04763459453742
  N   1.60742803779482      0.65420974123872     -1.22415615935037
  C   -1.18980921896708      0.62667296565067     -1.07590053463205
  C   -1.06073987090982      1.35156901147895      1.22738012438828
  C   -2.57785462425719      0.61482403459113     -0.98987857457117
  C   -3.21373731993912      0.96935910499711      0.19898246605499
  H   -3.16633758760847      0.32783010287837     -1.85427274663642
  C   -2.44924473434348      1.33713515370354      1.30520012239074
  H   -4.29602068762499      0.95904970567112      0.26288306335909
  H   -2.93730506871062      1.61405266198209      2.23308500140459
  C   3.06605640397121      1.37085863339927      0.95999015349426
  C   3.73346343280674      1.01705776447056     -0.20532075228316
  H   3.60728641422167      1.66421585151931      1.85469488074612
  C   2.94008882445405      0.66224344632034     -1.28845142760681
  H   4.81395503800191      1.01927478999765     -0.26654834411994
  H   3.37785239121659      0.37398953365984     -2.23963733337350
  H   -0.68705127388881      0.35285468293491     -1.99505846870524
  H   -0.45861153826944      1.63579992170431      2.08133948325841
