20
Coordinates from ORCA-job opt
  C   1.05420900474174      1.01729284983457     -0.05527352649992
  C   -0.42154142069548      1.00047951803369      0.03274699575856
  N   1.73461524315843      1.37617079723076      1.04573917178351
  N   1.60719930729721      0.66292530259723     -1.22680971682769
  C   -1.18990403579870      0.62878817337224     -1.07658205596315
  C   -1.06082485140480      1.35519357938757      1.22632462195836
  C   -2.57781837301507      0.61265099973656     -0.98920066077760
  C   -3.21355618138267      0.96577919784286      0.20016678638361
  H   -3.16635484138476      0.32348179279836     -1.85282597886309
  C   -2.44920489608595      1.33648654964115      1.30550386521301
  H   -4.29574206061530      0.95208791908456      0.26515264202590
  H   -2.93732174003274      1.61229550456626      2.23368360103257
  C   3.06601025727116      1.36931786656421      0.96037217649379
  C   3.73364372204715      1.01056326193329     -0.20337761054369
  H   3.60739577712564      1.66016094257620      1.85581516618647
  C   2.93992668052850      0.66370365278267     -1.28891135979427
  H   4.81423453224041      1.00525876894380     -0.26230268161311
  H   3.37774862768697      0.37542823898342     -2.24007421572525
  H   -0.68689113822282      0.35612674444168     -1.99594354462506
  H   -0.45849161345892      1.64167933964891      2.07938332439702
