20
Coordinates from ORCA-job opt
  C   1.05389966625842      1.02843162601270     -0.05944717900788
  C   -0.42163146637418      1.00801073679894      0.03090682638273
  N   1.73528335886056      1.38493202090874      1.04181532520868
  N   1.60591586714092      0.67151741810164     -1.23080277457569
  C   -1.19078399384337      0.63610555440356     -1.07778194104033
  C   -1.05969644937187      1.35903700923043      1.22620345887435
  C   -2.57854770576515      0.61549881322238     -0.98784626333242
  C   -3.21302995256914      0.96466158734715      0.20332899979886
  H   -3.16786412514052      0.32596363877144     -1.85079837636850
  C   -2.44792248877532      1.33585670354670      1.30796221400236
  H   -4.29505822860511      0.94748780728329      0.27029166882028
  H   -2.93526914760026      1.60864164553828      2.23741963607406
  C   3.06679336688753      1.36610859760983      0.95896464592996
  C   3.73330060717747      0.99704290132183     -0.20212254734417
  H   3.60917236761762      1.65501388624321      1.85442088792939
  C   2.93876159202930      0.66008045079553     -1.29013126762496
  H   4.81392487295770      0.97963616192622     -0.25813729828011
  H   3.37602196908434      0.36944234560845     -2.24082354426142
  H   -0.68896365069877      0.36646071985524     -1.99866086583222
  H   -0.45697245927018      1.64594337547444      2.07882439464702
