20
Coordinates from ORCA-job opt
  C   1.05362333416106      1.00296892319385     -0.06658354161893
  C   -0.42182133467275      0.99309640560720      0.02734621467465
  N   1.67280826141176     -0.18296207407425     -0.18607563550024
  N   1.66775140735643      2.19644163651765     -0.01577506336829
  C   -1.12281805080094     -0.21770840466210     -0.01317219945019
  C   -1.12798973655355      2.19447715103893      0.15821499517689
  C   -2.51069315156134     -0.22278445987610      0.07702376420200
  C   -3.21303299218523      0.97431353789744      0.20770337227737
  H   -3.04689682173943     -1.16474038664911      0.04523221636821
  C   -2.51584625502817      2.18085442999990      0.24777870442076
  H   -4.29496421488218      0.96700896141461      0.27784550635638
  H   -3.05607753980298      3.11556495804337      0.34912529845073
  C   3.00530967954072     -0.16312155704514     -0.25108022076818
  C   3.73370216947610      1.01809977819619     -0.19856634092698
  H   3.49718769802702     -1.12660804522337     -0.34711899183470
  C   3.00030099680063      2.19167356735752     -0.08256329263586
  H   4.81471922537315      1.02400793645036     -0.24906257625148
  H   3.48808428312871      3.16108276900310     -0.04026556083487
  H   -0.56844157730763     -1.14229951539233     -0.11493750086517
  H   -0.57757438074140      3.12650738820223      0.18851985212788
