20
Coordinates from ORCA-job opt
  C   1.05511463955298      1.02513366288224     -0.03792048706023
  C   -0.42110303061610      1.00562642168038      0.04056814553394
  N   1.60791781562490      1.54229509223897     -1.14744757364192
  N   1.73554817278667      0.50916109011911      0.99888032836523
  C   -1.06037640681141      0.47294602452434      1.16604434018143
  C   -1.18984809871253      1.51841345499053     -1.01072770396820
  C   -2.44935549591581      0.45411061914705      1.23482710986609
  C   -3.21405951769741      0.96454324840792      0.18693517513388
  H   -2.93752466195284      0.03952831896744      2.10982912892177
  C   -2.57836317067367      1.49586526222472     -0.93422127363832
  H   -4.29669166506889      0.94829855172574      0.24352805462638
  H   -3.16724724508419      1.89456812946879     -1.75279699684728
  C   2.93999263532498      1.52565011999779     -1.22093973585269
  C   3.73304072213099      1.00169408568018     -0.20843356424549
  H   3.37787618766914      1.94511017438523     -2.12194250400600
  C   3.06630135952630      0.50332015208793      0.90321020978834
  H   4.81285401782493      0.98823248485137     -0.27912578104789
  H   3.60785570020008      0.08362698965023      1.74586802906066
  H   -0.45775721779740      0.07879467178772      1.97478666561169
  H   -0.68684174031074      1.92895444518229     -1.87733756678141
