20
Coordinates from ORCA-job opt
  C   1.05530344916173      1.01434968881742     -0.03641101398258
  C   -0.42085401740173      0.99929755234059      0.04442539551666
  N   1.62129522301165      1.94196987654307     -0.82583467564992
  N   1.72231145232670      0.09113122383329      0.67547031749046
  C   -1.17609459241460      1.93000678252421     -0.67844934228733
  C   -1.07365810811561      0.05382685530582      0.84383872108144
  C   -2.56460178726996      1.91139139255404     -0.60114703823421
  C   -3.21377992152586      0.96896443168671      0.19498581393882
  H   -3.14299012783293      2.63533579941862     -1.16435196846909
  C   -2.46251773173466      0.04185295369165      0.91575454831828
  H   -4.29638603234714      0.95700460521543      0.25308455504766
  H   -2.96120551930977     -0.69374962361833      1.53706537499466
  C   2.95275107095920      1.93051320714992     -0.90999180499800
  C   3.73248491366819      1.01024065347636     -0.22161401031451
  H   3.40119547217362      2.68372683934140     -1.55114495730659
  C   3.05274035566242      0.09894558485391      0.57602631578235
  H   4.81192204524271      1.00651904951156     -0.29881836161899
  H   3.58329908738318     -0.65131976505488      1.15492354730420
  H   -0.66259711892004      2.65802016150130     -1.29400046864277
  H   -0.48128611271710     -0.66215026909209      1.39977505202947
