20
Coordinates from ORCA-job opt
  C   1.05443759967839      0.99821842379769     -0.05614834536600
  C   -0.42131385543763      0.99066682700448      0.03375455604559
  N   1.62046366462873      1.92828067409196     -0.84261149558111
  N   1.72136996324865      0.07676436075859      0.65804646814069
  C   -1.17632979580597      1.92598897513221     -0.68333847356380
  C   -1.07411544951660      0.04825177049684      0.83676144304593
  C   -2.56427365391293      1.91582489042861     -0.59569194403741
  C   -3.21351054538217      0.97686973613126      0.20447851260156
  H   -3.14220948992019      2.64382454451568     -1.15415048853719
  C   -2.46242082524565      0.04478193240946      0.91897490335587
  H   -4.29569003700157      0.97155043613272      0.27066958113734
  H   -2.96082085196286     -0.68848892056221      1.54329832186504
  C   2.95297206220024      1.93000844809669     -0.91054463929913
  C   3.73325172631773      1.02091530145344     -0.20827587975668
  H   3.40139674820825      2.68582064710350     -1.54862346675565
  C   3.05282366413445      0.09745680635188      0.57449266945370
  H   4.81374600109247      1.03071263259876     -0.26884112839090
  H   3.58323699824039     -0.65126290237597      1.15549492711644
  H   -0.66330688376507      2.65149422800110     -1.30224873831233
  H   -0.48237403979867     -0.67180381156671      1.38809021683803
