20
Coordinates from ORCA-job opt
  C   1.05515989909257      1.01266744556805     -0.03919645745338
  C   -0.42097612758504      0.99714310882321      0.04221052971723
  N   1.62047728845045      1.94120016670691     -0.82807902305279
  N   1.72276092221389      0.09088508629610      0.67407023579633
  C   -1.17681643130040      1.92694164608402     -0.68116793689576
  C   -1.07304649926076      0.05203505006356      0.84264276019367
  C   -2.56530453943693      1.90802110084907     -0.60308416651109
  C   -3.21377387652312      0.96605573453035      0.19415601935786
  H   -3.14419820625632      2.63130625004149     -1.16659859594565
  C   -2.46189886861068      0.03977826028858      0.91534316098977
  H   -4.29634197101349      0.95384592644609      0.25285857631976
  H   -2.96005253171270     -0.69547726525456      1.53747639360809
  C   2.95226837751330      1.93370113550315     -0.90841619285442
  C   3.73264358634511      1.01649158117011     -0.21680133990946
  H   3.40035495620650      2.68766886485980     -1.54890499151285
  C   3.05349017924888      0.10253719576780      0.57821713009033
  H   4.81234258969289      1.01633070140242     -0.29051872059191
  H   3.58466728884920     -0.64658401268492      1.15799668099977
  H   -0.66403206932680      2.65470797778248     -1.29758321526999
  H   -0.48039096658660     -0.66338095424379      1.39896715292452
