20
Coordinates from ORCA-job opt
  C   1.05600280611932      1.00012399695240     -0.02581639945837
  C   -0.42053637874300      0.99155801713175      0.04861412331273
  N   1.67515065337759     -0.18543577496578     -0.14931619701442
  N   1.66972644384273      2.19402809375960      0.01967740630299
  C   -1.12199711032494     -0.21860701857874     -0.00231680371687
  C   -1.12740744515610      2.19355000276044      0.16947785215698
  C   -2.51114544210603     -0.22228762712050      0.06557404948390
  C   -3.21423995614274      0.97551277474709      0.18535674989330
  H   -3.04770977610241     -1.16370845003494      0.02514602571377
  C   -2.51655197561297      2.18131691393480      0.23676208315433
  H   -4.29718131630528      0.96936447757738      0.23787879754959
  H   -3.05733261436856      3.11654905821007      0.33007903391364
  C   3.00567523681593     -0.16315264247926     -0.24581843244056
  C   3.73213942093876      1.02020483106527     -0.22252764633321
  H   3.49741976811411     -1.12627700575490     -0.34615888982654
  C   3.00032458410178      2.19167039806366     -0.07852035857676
  H   4.81108889896504      1.02860112186749     -0.30604995828162
  H   3.48766276546554      3.16152492743311     -0.04150532945903
  H   -0.56703638062916     -1.14375827310423     -0.09546402364828
  H   -0.57671818224962      3.12509517853528      0.20851391727445
