20
Coordinates from ORCA-job opt
  C   1.05424642222567      0.99595154462227     -0.05893483540653
  C   -0.42141686705765      0.98940779566097      0.03220520984310
  N   1.62032762105387      1.92642061996132     -0.84488410636774
  N   1.72121881029202      0.07471930272111      0.65552516962853
  C   -1.17635462210904      1.92529544947079     -0.68421978027892
  C   -1.07414232129237      0.04748145143676      0.83584281078974
  C   -2.56423256374721      1.91629232484077     -0.59515416030226
  C   -3.21338664723003      0.97787428665387      0.20571464363568
  H   -3.14217555388636      2.64473304297445     -1.15301886292579
  C   -2.46237799588637      0.04516397137313      0.91948986804345
  H   -4.29550357413160      0.97346220211693      0.27302125251861
  H   -2.96079918415877     -0.68766605057158      1.54430401548271
  C   2.95294172015695      1.93007202059883     -0.91045817457056
  C   3.73335302055086      1.02257243440365     -0.20624121115528
  H   3.40144202449210      2.68627609262117     -1.54801956080137
  C   3.05277420126418      0.09730959965055      0.57429959643792
  H   4.81395453872815      1.03434248339439     -0.26436809242230
  H   3.58325831200902     -0.65116588036223      1.15555322082064
  H   -0.66336723427888      2.65036653340714     -1.30366144771434
  H   -0.48242610699455     -0.67303422497429      1.38659044474473
