20
Coordinates from ORCA-job opt
  C   1.05600301521641      1.00003357155419     -0.02590780377069
  C   -0.42055340011875      0.99165898132615      0.04811857696387
  N   1.67501430378717     -0.18561406415276     -0.14927574249774
  N   1.66989666905685      2.19383808457151      0.02021788971946
  C   -1.12216590358429     -0.21840150687208     -0.00305178993460
  C   -1.12730091743220      2.19375169520033      0.16869085296630
  C   -2.51133719876926     -0.22190660342716      0.06445922541157
  C   -3.21431833595942      0.97598603589003      0.18397625144554
  H   -3.04802633294339     -1.16324849825096      0.02385998111507
  C   -2.51647422068724      2.18168934192220      0.23559936339614
  H   -4.29727381778550      0.96999512299096      0.23621748129442
  H   -3.05717856397359      3.11698927083626      0.32867892537434
  C   3.00562842734352     -0.16356423504575     -0.24475131766369
  C   3.73225401020946      1.01965949241411     -0.22055554402680
  H   3.49728257943268     -1.12675109452130     -0.34490157240606
  C   3.00057321726762      2.19125665627493     -0.07701923175467
  H   4.81127384339555      1.02787369993078     -0.30322608028150
  H   3.48806213195089      3.16101229257972     -0.03949351039108
  H   -0.56738869936854     -1.14368188374209     -0.09596920568894
  H   -0.57663780703797      3.12529864052092      0.20792025072906
