20
Coordinates from ORCA-job opt
  C   1.05567146524601      1.00081051219728     -0.03214213514406
  C   -0.42072069479644      0.99161732860401      0.04557878368150
  N   1.67514063474820     -0.18451980963424     -0.15525988106763
  N   1.66919892585019      2.19471643138278      0.01393870378793
  C   -1.12179279301278     -0.21892193073897     -0.00172261941387
  C   -1.12796816081807      2.19342815516764      0.16636720198134
  C   -2.51069489078435     -0.22316064110984      0.07000817366091
  C   -3.21418980914160      0.97441086871188      0.18982156120377
  H   -3.04690020286918     -1.16491872142442      0.03231995333804
  C   -2.51684785378267      2.18060006329498      0.23748268749367
  H   -4.29696158563977      0.96775246271268      0.24547302515388
  H   -3.05786612705451      3.11571542043728      0.33077096477195
  C   3.00592134214097     -0.16235566284993     -0.24762227202368
  C   3.73253183957089      1.02085626574424     -0.22014210989053
  H   3.49770918587875     -1.12548826930060     -0.34772263484704
  C   3.00005341147939      2.19240334166061     -0.07985358014649
  H   4.81181850222274      1.02917398490371     -0.29918862483795
  H   3.48706178077723      3.16240396845789     -0.04208334313542
  H   -0.56641941307493     -1.14383487795947     -0.09491346753940
  H   -0.57741055694007      3.12518610974248      0.20247761297308
