20
Coordinates from ORCA-job opt
  C   1.05333202127850      1.00350616960555     -0.07108678717527
  C   -0.42199589762267      0.99316143877878      0.02405325937110
  N   1.67311238944277     -0.18241486282485     -0.18764936600170
  N   1.66711091022357      2.19718126622620     -0.02078928158020
  C   -1.12245965751573     -0.21806602589222     -0.01363575382788
  C   -1.12864756507608      2.19442641085629      0.15335530422928
  C   -2.51021862368421     -0.22368230480639      0.07815686738867
  C   -3.21300758464880      0.97331039862139      0.20741704765458
  H   -3.04597204033935     -1.16597219310643      0.04857464044934
  C   -2.51638193183131      2.18026575638003      0.24455263834388
  H   -4.29485662502438      0.96558862059665      0.27885290412553
  H   -3.05696015763363      3.11490325159838      0.34477765839155
  C   3.00582589542731     -0.16248802740870     -0.24728060542863
  C   3.73403593122939      1.01875531242574     -0.19213102088949
  H   3.49813899751857     -1.12602552712764     -0.34067256718945
  C   2.99988417669226      2.19247651418213     -0.08231168875575
  H   4.81528082911057      1.02466368804167     -0.23738284997513
  H   3.48733429098742      3.16207858004067     -0.04031839079006
  H   -0.56765050302286     -1.14253315830621     -0.11423224762207
  H   -0.57857085551135      3.12673969211897      0.18133723928169
