20
Coordinates from ORCA-job opt
  C   1.05507333992894      1.00176270918260     -0.04492674437502
  C   -0.42103580284686      0.99209875841238      0.03868249580724
  N   1.67461026452936     -0.18390957317627     -0.16447783052692
  N   1.66841721469171      2.19576718848720      0.00095245198101
  C   -1.12202016723084     -0.21856952903806     -0.00610683200692
  C   -1.12822178205300      2.19357427211606      0.16303295393720
  C   -2.51054153425006     -0.22330240337767      0.07234998399276
  C   -3.21398660154266      0.97389603068455      0.19604348424060
  H   -3.04646209573493     -1.16531794111326      0.03676895949516
  C   -2.51671762391623      2.18022638157399      0.24089582894891
  H   -4.29646367909367      0.96683072420444      0.25699321247916
  H   -3.05745029900965      3.11522826197399      0.33706491123095
  C   3.00615214509092     -0.16242326232006     -0.24646205909381
  C   3.73305497384881      1.02031589659309     -0.21159089295082
  H   3.49803375364963     -1.12583756061315     -0.34324830022596
  C   3.00003348202426      2.19270911910617     -0.08254323899207
  H   4.81310634495490      1.02786750763971     -0.27988427534775
  H   3.48689725413226      3.16276606895415     -0.04465043068681
  H   -0.56710122913924     -1.14345137386469     -0.10232504983949
  H   -0.57804695803367      3.12564372457482      0.19701837193256
