20
Coordinates from ORCA-job opt
  C   1.05348740611323      1.00340451195792     -0.06925284139298
  C   -0.42191868382544      0.99303367754429      0.02524863745197
  N   1.67342434958614     -0.18247692543242     -0.18446215203771
  N   1.66714458992827      2.19715378986616     -0.02093021714643
  C   -1.12250872589023     -0.21807144550300     -0.01396942284578
  C   -1.12862843913750      2.19420191393882      0.15525511876559
  C   -2.51028717737064     -0.22364535883426      0.07690144012875
  C   -3.21318768343726      0.97321738947561      0.20684147594543
  H   -3.04608020842020     -1.16589144741686      0.04619292123432
  C   -2.51637790201903      2.18003598073895      0.24553948616725
  H   -4.29507802209661      0.96550732213591      0.27748308124259
  H   -3.05696231538232      3.11462716471389      0.34629649656234
  C   3.00602933119324     -0.16247308786874     -0.24581688381730
  C   3.73407591270710      1.01903458448680     -0.19388865169574
  H   3.49827851875048     -1.12615817097582     -0.33802058343167
  C   2.99978999132455      2.19271948324261     -0.08427547659956
  H   4.81524576442132      1.02511960062051     -0.24092008085270
  H   3.48694112379690      3.16254787402199     -0.04400546903044
  H   -0.56760957043117     -1.14243608284506     -0.11508553415679
  H   -0.57844625981085      3.12642422613265      0.18445565550888
