20
Coordinates from ORCA-job opt
  C   1.05432736616906      1.00214993371514     -0.05059127707944
  C   -0.42153387947414      0.99231899099001      0.03560425395089
  N   1.67405398740982     -0.18363703521541     -0.16967492461470
  N   1.66789507646831      2.19616595937951     -0.00366779649948
  C   -1.12195742321708     -0.21870350534680     -0.00756478478032
  C   -1.12819301014272      2.19396508346439      0.16094246509022
  C   -2.51053000202282     -0.22375602283640      0.07379927633048
  C   -3.21333084147637      0.97371508799421      0.19861461995655
  H   -3.04676012424345     -1.16554998545014      0.03972494832759
  C   -2.51674419692019      2.18050963826552      0.24172058133310
  H   -4.29570611319965      0.96650398730624      0.26180863070931
  H   -3.05782742151501      3.11512384359167      0.33870135455813
  C   3.00592780698389     -0.16236475392321     -0.24685064317291
  C   3.73343115334525      1.02003412108576     -0.20757526278906
  H   3.49839660513879     -1.12552552011551     -0.34294151605077
  C   2.99983280553497      2.19267183014402     -0.08256954889430
  H   4.81371311593361      1.02724962901998     -0.27091223946590
  H   3.48729635559209      3.16237084671447     -0.04382952591440
  H   -0.56695507068676     -1.14337262035128     -0.10466721802743
  H   -0.57800318967763      3.12600549156781      0.19351460703243
