20
Coordinates from ORCA-job opt
  C   1.05605906559736      0.98929421627436     -0.02668479787740
  C   -0.42043574814149      0.98417439293602      0.04911122866727
  N   1.64620730792870     -0.04469294750439     -0.64853922036380
  N   1.69865747227068      2.03642181318343      0.51624992487785
  C   -1.09790168354065      2.03645405550216      0.67588693570037
  C   -1.15124286565313     -0.07229366111557     -0.50669228803935
  C   -2.48709922411153      2.02922113889962      0.74263260984036
  C   -3.21403199233627      0.97683950377570      0.18815344901138
  H   -3.00503855494948      2.84808507907566      1.22947149176999
  C   -2.54024555899035     -0.07203814305219     -0.43575822020768
  H   -4.29693720472209      0.97419498234873      0.24171691670319
  H   -3.09967092983772     -0.89371424829566     -0.86900369735740
  C   2.97684070648383     -0.01237736367503     -0.74090052341873
  C   3.73172784480177      1.03308455624895     -0.22540097615467
  H   3.44504888023310     -0.85207920228416     -1.24604072786421
  C   3.02874381416570      2.04715131559178      0.41187444135580
  H   4.81045826825124      1.05312277720219     -0.30978341161936
  H   3.53956633330617      2.89801001214548      0.85299377688067
  H   -0.52451938700461      2.84941904250367      1.10353111205455
  H   -0.61885354375125     -0.88240431976075     -0.98923302395883
