20
Coordinates from ORCA-job opt
  C   1.05496599764635      1.01827819621609     -0.04117641540268
  C   -0.42123161253797      1.00149171961040      0.03859948892265
  N   1.60781501968236      1.53664918865371     -1.15008080594135
  N   1.73545998509176      0.50337864063790      0.99603241589640
  C   -1.06056023017492      0.46939380212569      1.16432752024636
  C   -1.18997561794068      1.51660426218386     -1.01156090105134
  C   -2.44946617791979      0.45378502700930      1.23467510432643
  C   -3.21417126669205      0.96671822457712      0.18798189146174
  H   -2.93765583456431      0.03979701733150      2.10995262621116
  C   -2.57843039740896      1.49728871857469     -0.93351454760768
  H   -4.29677288990345      0.95301813264706      0.24576912472163
  H   -3.16731337759736      1.89785096193963     -1.75119066297650
  C   2.94006660298375      1.52633518334956     -1.22059080850064
  C   3.73349560245571      1.00795995559395     -0.20544791121510
  H   3.37788064756635      1.94692219444843     -2.12111213368553
  C   3.06641784263380      0.50397373501453      0.90348829207294
  H   4.81356538694173      1.00112016094628     -0.27297621149310
  H   3.60791214002095      0.08543085408612      1.74676445337250
  H   -0.45780811565089      0.07331450044860      1.97204126289900
  H   -0.68686170463237      1.92656352460556     -1.87839278225687
