20
Coordinates from ORCA-job opt
  C   1.05427598986096      1.01575728923672     -0.05479582665124
  C   -0.42149208552018      0.99957503296690      0.03302380092372
  N   1.73461979428347      1.37527698345383      1.04605745751877
  N   1.60724513704410      0.66123464866522     -1.22630816051646
  C   -1.18986642075289      0.62851103604076     -1.07649468078231
  C   -1.06079381444039      1.35437728747864      1.22655259215255
  C   -2.57781678046745      0.61313103029704     -0.98936708704514
  C   -3.21358340732362      0.96637575235269      0.19994819914212
  H   -3.16632903152951      0.32444369702957     -1.85316836995237
  C   -2.44920839982595      1.33642775193730      1.30548789412122
  H   -4.29578763296641      0.95328242608942      0.26473412250493
  H   -2.93730405990623      1.61234431898056      2.23364500726068
  C   3.06601802164805      1.36977505607982      0.96027021410164
  C   3.73360543543270      1.01180851853898     -0.20372722903795
  H   3.60737359514949      1.66120154158325      1.85553667387917
  C   2.93997396376895      0.66335260652329     -1.28879206840954
  H   4.81418250827810      1.00789619128741     -0.26306984108833
  H   3.37780832437041      0.37499721657638     -2.23992068100726
  H   -0.68699386121798      0.35573603799361     -1.99589644207306
  H   -0.45859427588564      1.64036957688863      2.07986842495887
