18
Coordinates from ORCA-job mp2_opt
  C   0.78335303016066      0.21611279765219     -0.00049547001599
  C   -0.67484418924809      0.09930667595288     -0.00025181962132
  C   -1.31221647325497     -1.14757243921669     -0.00021061038917
  C   -1.45146023046211      1.26529323670585      0.00000026391009
  C   -2.70069997582515     -1.22651437177401      0.00004519759129
  H   -0.72594320781558     -2.06124811690131     -0.00038502185783
  C   -2.83880757520757      1.17837997874009      0.00023283339731
  H   -0.94952975935766      2.22547595216807     -0.00000699284282
  C   -3.47074337063534     -0.06490458243350      0.00024789740633
  H   -3.18228527785789     -2.19785341255356      0.00005889911076
  H   -3.43127778786174      2.08658196686921      0.00039848825765
  H   -4.55289243261483     -0.12808973377756      0.00042907677689
  C   2.77707299807486      1.16799494530388     -0.00046468904979
  H   3.44344506007444      2.02027482247234     -0.00034252786274
  N   1.43294924558445      1.36740587428393     -0.00090454331593
  C   3.18579277636934     -0.14636943155580      0.00084709142032
  H   4.19098766005280     -0.53983233401156      0.00193282122375
  S   1.82500550982439     -1.16478982792445     -0.00094489413881
