18
Coordinates from ORCA-job opt
  C   1.00414021617608      1.01137369817046      0.03985371213349
  C   -0.48324968834176      1.02106714134049     -0.01075583703344
  N   1.56907988923884      1.43203878270264      1.17613779484636
  N   1.62716199037410      0.55842809546716     -1.05376054853432
  N   -1.03963010506620      1.94400958093089     -0.80341562991493
  N   -1.11818429099654      0.09603456256024      0.71590935697796
  C   -2.37585391393195      1.94079139572862     -0.85571764946418
  C   -3.14043533894094      1.02694486010038     -0.14230208228373
  H   -2.83574097049591      2.69214614948659     -1.49016175227072
  C   -2.45329002407484      0.10790474624865      0.63970034722090
  H   -4.22159307451015      1.02953084710477     -0.19492961868449
  H   -2.97620750313213     -0.64386279067899      1.22271984311725
  C   2.90611781795791      1.40790723320820      1.20539446638188
  C   3.66040816815175      0.96047045779552      0.12855838359454
  H   3.37507907763994      1.75579717233561      2.12056800053600
  C   2.96319488287087      0.53621047664264     -0.99520788095825
  H   4.74208309961389      0.94077419211070      0.16443860500712
  H   3.47861876746703      0.16533339874544     -1.87573051067143
