18
Coordinates from ORCA-job opt
  C   1.00284045074832      0.98841558583889      0.02584681465912
  C   -0.48323143914141      1.00306026045468     -0.02513654537737
  N   1.61784444223096      2.16527621736235     -0.14243332275873
  N   1.58123923940368     -0.19807885056027      0.24767468903409
  N   -1.09870892793054      1.94906790657577      0.69397237193822
  N   -1.05996074063348      0.07447000006759     -0.79788658422521
  C   -2.43409907825102      1.94845439254105      0.63627903334901
  C   -3.14175898628896      1.03481721548038     -0.13471224549088
  H   -2.94222735065815      2.70474707326702      1.22674525686695
  C   -2.39530581987654      0.10522841059848     -0.84790967768675
  H   -4.22328024735430      1.04757489219578     -0.17876783289955
  H   -2.87114828217120     -0.63766174292465     -1.48077717313560
  C   2.95327934848478      2.13771506738672     -0.09469696047494
  C   3.66217158533598      0.96480025922137      0.13249057817883
  H   3.46042003956561      3.08621910824511     -0.24297473344049
  C   2.91661197013088     -0.19476092974800      0.30403715553156
  H   4.74377250582558      0.95512418105824      0.17530485703714
  H   3.39324029057982     -1.15156604706052      0.49424331889460
