18
Coordinates from ORCA-job opt
  C   1.00409649971452      0.98444644470386      0.02654709839784
  C   -0.48423978496792      1.00216407638147     -0.03649154417414
  N   1.56295164677230      1.64515383295286      1.04547058476994
  N   1.63439960406297      0.31898018937531     -0.94644603282264
  N   -1.04494309379333      2.07505750581470     -0.60304596597904
  N   -1.11147846171506     -0.05389799906795      0.49137032841717
  C   -2.38191440261111      2.07856557286809     -0.64722124617190
  C   -3.14083692469532      1.03589095904047     -0.13176161544905
  H   -2.84699777588708      2.94406731775427     -1.10878592538923
  C   -2.44780115251306     -0.02439202422452      0.43772630384117
  H   -4.22237854290560      1.04952757238970     -0.17102898784398
  H   -2.96676277224929     -0.87662567093638      0.86530559276242
  C   2.89971214470664      1.62577469499809      1.09001360229318
  C   3.66111240355048      0.96558480967550      0.13444852318129
  H   3.36256089813733      2.15662603381209      1.91609919846816
  C   2.97047249787081      0.31750434515683     -0.88125845587902
  H   4.74251977219525      0.95753621532299      0.17860564504425
  H   3.49122744432747     -0.21906187601738     -1.66824710346641
