18
Coordinates from ORCA-job opt
  C   1.00285479957072      0.98346097498405      0.02460328850339
  C   -0.48395303319292      0.99813772440633     -0.02112060261134
  N   1.61787283444762      2.14124948629695     -0.24226026671701
  N   1.57878605843546     -0.17964230257286      0.34886295203672
  N   -1.10061494156208      1.87974656784388      0.77324923322789
  N   -1.05567760267987      0.13974180732291     -0.87380210763877
  C   -2.43635643983486      1.88255187083551      0.71244551330590
  C   -3.14012896099422      1.03669151149557     -0.13537104492503
  H   -2.94707614915679      2.58617814801221      1.36262562375404
  C   -2.39147207219932      0.17241707617924     -0.92414367983777
  H   -4.22153137810748      1.05204561635265     -0.18095833391402
  H   -2.86493277217233     -0.51392774926845     -1.61944563873449
  C   2.95376419008627      2.11643433176884     -0.19388383317939
  C   3.66081965105426      0.96592126814355      0.13138742569870
  H   3.46186616442612      3.04852096393890     -0.42133632784864
  C   2.91467956445230     -0.17382133073287      0.40278295653231
  H   4.74242786839263      0.95853052833842      0.17385806616554
  H   3.39037221903448     -1.11133649334484      0.67380477618196
