18
Coordinates from ORCA-job opt
  C   1.00380140405252      1.00190804265355      0.03265238674831
  C   -0.48502509297328      1.01252226808849     -0.01803058045725
  N   1.62338430695188      0.27818168954434     -0.90539006122305
  N   1.57321566449682      1.70191553051715      1.01887609213639
  N   -1.10767686024357     -0.07609577936221      0.44392956373218
  N   -1.04868185938081      2.10691439351639     -0.54025284007174
  C   -2.44372331290297     -0.05224621827027      0.38252897047659
  C   -3.13993712571237      1.03081755784224     -0.13804756197645
  H   -2.95978109956286     -0.92914926116477      0.76095580932908
  C   -2.38519768697501      2.10288024838455     -0.59613509147957
  H   -4.22126873569862      1.03826105777164     -0.18618025920683
  H   -2.85317484524642      2.98507662805065     -1.02184377739762
  C   2.95966594044241      0.27084818716043     -0.84830297475807
  C   3.66069181397778      0.96291505223801      0.13057675575903
  H   3.47193385770641     -0.30898125315210     -1.60980740866512
  C   2.90988978513331      1.67332541956906      1.05801389659404
  H   4.74228888359721      0.94770469160074      0.17002357413202
  H   3.38129396233759      2.23610174501208      1.85773450632806
