18
Coordinates from ORCA-job opt
  C   1.00403221253101      0.97175991174208      0.02563922703148
  C   -0.48481386247580      0.98679656804998     -0.03026352458554
  N   1.64941932477251      1.52078073297540     -1.01229731058770
  N   1.56248056042005      0.42834732167090      1.11520997280894
  N   -1.13319857150657      0.96154376772546      1.14165279974262
  N   -1.03833633368528      1.04248825418840     -1.24918249049247
  C   -2.46675954468947      0.99198578570453      1.07481178561740
  C   -3.14946944544284      1.04147261679201     -0.13435475721944
  H   -2.99616497129913      0.97920754615570      2.02282784591790
  C   -2.37314903071015      1.06365611907416     -1.28660799198100
  H   -4.23091041504815      1.06301616138828     -0.17652455523061
  H   -2.82618052653507      1.09891642948838     -2.27286794739873
  C   2.98312752768775      1.51575463049050     -0.94383083665985
  C   3.67005286739169      0.97081643003193      0.13400987057603
  H   3.50921542696653      1.96664737832917     -1.77996352200685
  C   2.89735176172020      0.42927650747749      1.15392148650651
  H   4.75164355870295      0.96978464381408      0.17772072874585
  H   3.35336046119978     -0.01935180509845      2.03139821921547
