18
Coordinates from ORCA-job opt
  C   1.00318091858257      0.97957790858859      0.02600988497712
  C   -0.48367558292853      1.00112227201160     -0.04412412309728
  N   1.56545922928891      1.77702228270567      0.94063498166923
  N   1.63117165583710      0.18375075680124     -0.84593838767633
  N   -1.04913021005996      2.14187970422031     -0.45134042280234
  N   -1.10589325837200     -0.12107483854005      0.33400455520568
  C   -2.38580422035691      2.14403799450265     -0.49767338178155
  C   -3.13987236882676      1.03692214959070     -0.13049629046230
  H   -2.85514771602938      3.06232316235862     -0.83680620531272
  C   -2.44222745716763     -0.08871569007178      0.28835556044031
  H   -4.22161555610439      1.05157663195373     -0.16672958019617
  H   -2.95778446206619     -0.99203734669768      0.59945099966334
  C   2.90162372833030      1.75463848542428      0.99125982653745
  C   3.66024915801218      0.96532669015300      0.13660923414294
  H   3.36676962592076      2.39103769042300      1.73772720568331
  C   2.96694918498556      0.18758175763260     -0.78173544902529
  H   4.74170699086915      0.95868222387245      0.18230909976231
  H   3.48574034008521     -0.45075183492893     -1.49021550772770
