18
Coordinates from ORCA-job opt
  C   1.00564605596799      0.99073604540351      0.03352272862966
  C   -0.48535162238272      1.00810945504005     -0.03445616108571
  N   1.61482308608131      2.16586710745642      0.24344830072219
  N   1.60542809435752     -0.19543869293148     -0.13728883656098
  N   -1.09452130125651      2.13675580922049      0.35450265093194
  N   -1.08538681902215     -0.11096934960164     -0.46281036327114
  C   -2.42828938083898      2.13631836885787      0.29827607072086
  C   -3.15460462449472      1.03455395820055     -0.13668306041968
  H   -2.92280885697686      3.04967208491162      0.61550673625674
  C   -2.41914569168595     -0.08292080986581     -0.51210331471956
  H   -4.23622358684098      1.04551794282881     -0.17893652643697
  H   -2.90595949357070     -0.98756767346813     -0.86426721343137
  C   2.94859580057952      2.13789406495297      0.29241637814165
  C   3.67475831722216      0.96367168839137      0.13582453269134
  H   3.44324810469723      3.09004069532621      0.46014396247967
  C   2.93919530299808     -0.19510482839460     -0.08050010485394
  H   4.75637399630597      0.95254660110997      0.17812874941462
  H   3.42592261885981     -1.15678146743818     -0.21342452920932
