18
Coordinates from ORCA-job opt
  C   1.00452909170276      1.00052478810892      0.03011908056704
  C   -0.48344907247998      1.01567046500312     -0.03325096646876
  N   1.63905134373570      1.98612472896758     -0.61249408434262
  N   1.55853489181647     -0.00491083326472      0.71532316185179
  N   -1.11561781106093      1.56339307157213      1.00980836808008
  N   -1.04150966333595      0.47063787761992     -1.11873134863947
  C   -2.45172250528810      1.56696860939594      0.94639618527371
  C   -3.14131060396618      1.03000583535159     -0.13282739171257
  H   -2.97338956074953      2.01306225906472      1.78741861413543
  C   -2.37851879896476      0.48341135772287     -1.15652784915580
  H   -4.22285869475836      1.03617687260632     -0.17368639352805
  H   -2.84041687335734      0.04116613346851     -2.03374595561399
  C   2.97498307898451      1.95696646757067     -0.55052556619546
  C   3.66115264772079      0.96193532936326      0.13345345019849
  H   3.49935641579377      2.75538622165018     -1.06627843362217
  C   2.89545426637265     -0.01323999286751      0.75916860934800
  H   4.74254972899789      0.94647070144299      0.17586801740511
  H   3.35488311883659     -0.82684989277650      1.31181150241925
