18
Coordinates from ORCA-job opt
  C   1.00305785505011      0.99097575879362      0.02854295555048
  C   -0.48290072232995      1.00604008332100     -0.02947146067023
  N   1.64732318003453      1.65137429220380     -0.94200196989481
  N   1.55623403346291      0.31888667364939      1.04610265834659
  N   -1.12729065219756      1.11073102146285      1.13967455476586
  N   -1.03589239726408      0.91413910190163     -1.24559403012289
  C   -2.46160080481007      1.12945993819064      1.07221181504807
  C   -3.14487295528572      1.03391021407754     -0.13378800516610
  H   -2.99001078855053      1.22557813201621      2.01586399956797
  C   -2.37147458842686      0.92316283387831     -1.28272845283878
  H   -4.22642856253886      1.04519447202175     -0.17616306934870
  H   -2.82636828032551      0.83769925170615     -2.26492300283289
  C   2.98163594845648      1.63486693970647     -0.87419040781632
  C   3.66507685021882      0.96447765371120      0.13275013642176
  H   3.50992314789249      2.17805979936546     -1.65187371979066
  C   2.89182103832195      0.30864914198445      1.08271025863800
  H   4.74663929580872      0.95367454608607      0.17507031526060
  H   3.34682740248314     -0.24398085407654      1.89910942488206
