18
Coordinates from ORCA-job opt
  C   1.00320454564834      0.97971933582363      0.02538563264035
  C   -0.48468947603117      0.99481692997293     -0.01994362251898
  N   1.61918886056567      2.10969992907791     -0.33839983233716
  N   1.57688336520002     -0.15239318811733      0.44635150527366
  N   -1.10356210665595      1.80523125007161      0.84442272088041
  N   -1.05223545479321      0.21074885039180     -0.94330133819983
  C   -2.43950535285122      1.81190093193047      0.78075914020750
  C   -3.13963513335309      1.03838537440563     -0.13610658361146
  H   -2.95270233744557      2.45903691545437      1.48530598357486
  C   -2.38840420196007      0.24414172940267     -0.99286417704100
  H   -4.22095323804445      1.05568951666846     -0.18245050429286
  H   -2.85937956914246     -0.38342692983855     -1.74313694004948
  C   2.95537354679153      2.08747174349782     -0.28834643249858
  C   3.66048317518356      0.96679190767994      0.13101125731430
  H   3.46464096220446      2.99695087481883     -0.59178261254133
  C   2.91321816166313     -0.14510497952131      0.49732153621073
  H   4.74209752513039      0.96114489759638      0.17299121627409
  H   3.38767572789008     -1.05790508931525      0.84408305071478
