18
Coordinates from ORCA-job opt
  C   1.00404450981771      0.99374822281759      0.02617580938783
  C   -0.48365320245757      1.00646847040177     -0.02559948312461
  N   1.59260447188262      2.02939224450935      0.63907480941450
  N   1.61658640950518     -0.05802160664310     -0.53322116086027
  N   -1.07212102849423      2.20965051340223     -0.05680103806123
  N   -1.09685554820293     -0.18415824032012     -0.04944941998356
  C   -2.40649633844710      2.20864326353949     -0.11485772347337
  C   -3.14823662649150      1.03391014180469     -0.13484179937133
  H   -2.88727290189659      3.18167880138459     -0.14908942279203
  C   -2.43132613017548     -0.15571806003993     -0.09788009145381
  H   -4.22976585194551      1.04493248581098     -0.17850071994404
  H   -2.93296177060397     -1.11873152656540     -0.10649509462478
  C   2.92703475399145      2.00007065916217      0.68847709324181
  C   3.66836375996210      0.96423778880927      0.13339768174473
  H   3.40820568284569      2.83319886887860      1.19194594680301
  C   2.95111986017802     -0.05682834850138     -0.47781602037478
  H   4.74991754029710      0.95256526419363      0.17629497741613
  H   3.45251241023500     -0.90213894264444     -0.93951434394421
