18
Coordinates from ORCA-job opt
  C   1.00303794542797      0.99132904592261      0.02891721636501
  C   -0.48283902121131      1.00660628867226     -0.02994613478353
  N   1.61779087899492      2.17867222113945     -0.04522846243036
  N   1.58569241569636     -0.20822890966275      0.15007381959428
  N   -1.09756498352505      2.00757276785154      0.61302522238616
  N   -1.06554262781484      0.01792748500531     -0.71989917725593
  C   -2.43253151229764      2.00577119100202      0.55717781222813
  C   -3.14483231723602      1.03410226161099     -0.13490150430230
  H   -2.93758412590538      2.80835132546159      1.08606521450852
  C   -2.40044731661334      0.04741922921762     -0.76955403723104
  H   -4.22637877680350      1.04527039278053     -0.17753863278585
  H   -2.87872785977254     -0.74537812124129     -1.33669528011470
  C   2.95276200835748      2.14986153373481      0.00267871223895
  C   3.66501574179877      0.96414297303788      0.13398069694898
  H   3.45783338406348      3.10839239027600     -0.06842233048872
  C   2.92059171734508     -0.20668425342070      0.20780809709153
  H   4.74656154686158      0.95308571943664      0.17666616544557
  H   3.39886190263398     -1.17531454082453      0.31709160258530
