18
Coordinates from ORCA-job opt
  C   1.00320219520766      0.99902661068336      0.02900242748682
  C   -0.48242439569363      1.01401862514688     -0.03073684723389
  N   1.64810967863267      1.69448967668429     -0.91577499105034
  N   1.55320926909999      0.28468475853882      1.01897849658015
  N   -1.12524435245416      1.16170457258839      1.13449945611896
  N   -1.03567272319748      0.87175504342234     -1.24145706380636
  C   -2.45977506940894      1.17533760214795      1.06785890440234
  C   -3.14336659682101      1.03050845372160     -0.13290127011389
  H   -2.98765561710069      1.30678086516144      2.00753168427327
  C   -2.37149096040642      0.87588853631639     -1.27756038238401
  H   -4.22503535332695      1.03732802587045     -0.17451322162720
  H   -2.82723650574154      0.74964904592188     -2.25493792722390
  C   2.98255104183540      1.67323883436341     -0.84758989855173
  C   3.66330716406106      0.96216671975367      0.13273331112811
  H   3.51264905178699      2.24485004940374     -1.60334162356328
  C   2.88898273216419      0.27018628464930      1.05561678210492
  H   4.74487408355866      0.94738453731488      0.17498345978926
  H   3.34271835780420     -0.31609724168878      1.84890770367079
