18
Coordinates from ORCA-job opt
  C   1.00332464240041      0.97772030655748      0.02166507820391
  C   -0.48187004104102      0.99503446189770     -0.03946028143404
  N   1.64936811192963      0.78707554665235     -1.13481101989542
  N   1.55022526651384      1.16976580867247      1.22854536928130
  N   -1.12339530202118      0.26270762422466      0.87957819690770
  N   -1.03575710174679      1.75000460379583     -0.99566835412725
  C   -2.45819108963944      0.28724289579899      0.81842527109235
  C   -3.14244438890661      1.03855056747210     -0.12881264355831
  H   -2.98533136300324     -0.31415164678156      1.55279177046435
  C   -2.37181826381259      1.76726279348249     -1.02588886609710
  H   -4.22415995788268      1.05610273795335     -0.16548266219194
  H   -2.82833897706869      2.38625460237910     -1.79221674690541
  C   2.98396354838959      0.77646529300721     -1.06226053873232
  C   3.66209913489050      0.96810805150961      0.13495172026039
  H   3.51589705688639      0.60981391487825     -1.99397227984008
  C   2.88618368054467      1.16778554099869      1.26990126206616
  H   4.74359359458358      0.96365310204543      0.18101805760663
  H   3.33835144898364      1.33350279545584      2.24299866689910
