18
Coordinates from ORCA-job opt
  C   1.00355918834112      1.01331535044595      0.02918875836926
  C   -0.48147121864375      1.02770141436095     -0.03482705363694
  N   1.65067611240693      1.77922910956702     -0.85666241538748
  N   1.54764189017849      0.21603206252068      0.95679905240755
  N   -1.12172373292294      1.26513284927993      1.11662531199931
  N   -1.03609945554214      0.78267353568296     -1.22744628966112
  C   -2.45677827998942      1.26892762972701      1.05280482261954
  C   -3.14173866002578      1.02426480538635     -0.13069357189543
  H   -2.98312486393640      1.47317876901919      1.98017547454483
  C   -2.37239363189408      0.77896927871615     -1.26083399078022
  H   -4.22349131811604      1.02332420474591     -0.17006246834418
  H   -2.82969203628870      0.57076900196501     -2.22326130899086
  C   2.98541984243656      1.74895565739600     -0.78769017048781
  C   3.66112461705933      0.95843872516579      0.13327996053384
  H   3.51901818088700      2.37717594309085     -1.49432785894169
  C   2.88377036198641      0.19466699218997      0.99481247882564
  H   4.74253933465802      0.93683313773785      0.17606359976504
  H   3.33446266940539     -0.45668746699758      1.73735766906073
