18
Coordinates from ORCA-job opt
  C   1.00440108942274      1.01770262827956      0.02859298176013
  C   -0.48160172083126      1.03168166597308     -0.03935398293820
  N   1.65036890815569      1.88991997283761     -0.75224860209327
  N   1.54676192807198      0.11077170005607      0.84926398564141
  N   -1.11830698015573      1.41233903382281      1.07428614233857
  N   -1.03820518065238      0.63857089420990     -1.18959024030689
  C   -2.45401964875278      1.41056479551993      1.01363902188901
  C   -3.14093766663653      1.02219909921410     -0.12925323498615
  H   -2.97810314844814      1.72784544554043      1.90988705531545
  C   -2.37503476474530      0.63544502581743     -1.22116780162801
  H   -4.22274133963009      1.01899238588137     -0.16653328161617
  H   -2.83453684478410      0.31079102760124     -2.14960854488613
  C   2.98560918839525      1.85491439637317     -0.68358921348394
  C   3.66001736540410      0.95786295119154      0.13458037868028
  H   3.51952831727953      2.56632124822521     -1.30597123696873
  C   2.88333054852929      0.08966979158960      0.89100876520376
  H   4.74133214902696      0.93440445527448      0.17848267519477
  H   3.33384080035077     -0.64709651740753      1.54887413288412
