18
Coordinates from ORCA-job opt
  C   1.00458275652005      0.96941318039577      0.02480266241278
  C   -0.48529008041663      0.98450749473882     -0.03135716582591
  N   1.65161476398635      1.47641804056197     -1.03348647711884
  N   1.56327920709311      0.47016120130978      1.13538458191288
  N   -1.13499170972684      0.91254896046850      1.13809830408724
  N   -1.03951864726494      1.08896676651648     -1.24690664103152
  C   -2.46836299907045      0.94411502490282      1.07212503737252
  C   -3.15121568550536      1.04224579324758     -0.13399564668626
  H   -2.99785735705094      0.89197310336347      2.01878582300007
  C   -2.37412095368043      1.11169730809174     -1.28384203713634
  H   -4.23266472172905      1.06497382546318     -0.17557736961804
  H   -2.82663632751964      1.18766404013230     -2.26808221503112
  C   2.98511205911476      1.47273728362561     -0.96469010563917
  C   3.67176791924375      0.97175460579735      0.13445050268578
  H   3.51161593666614      1.88850542316696     -1.81862358975349
  C   2.89792932162813      0.47267987098632      1.17495883136055
  H   4.75334940086189      0.97200741098954      0.17863927754216
  H   3.35310811685011      0.06053066624181      2.07061622746672
