18
Coordinates from ORCA-job opt
  C   1.00440070759862      0.99159535879790      0.02872640076549
  C   -0.48420744839871      1.00677774778649     -0.02962153015357
  N   1.56449984742003      1.59121341390134      1.08402377466727
  N   1.63304296525060      0.37970252807419     -0.97988385431967
  N   -1.04429069495958      2.04441642080634     -0.65931461587781
  N   -1.11287263765162     -0.01883081045598      0.55331271400221
  C   -2.38118468430916      2.04627947144182     -0.70489984930721
  C   -3.14111999227117      1.03374304516601     -0.13400002158013
  H   -2.84529707946581      2.88508263328865     -1.21427186391465
  C   -2.44898772783915      0.00645770761537      0.49392665577332
  H   -4.22256391400863      1.04472337196454     -0.17649123812757
  H   -2.96852386274682     -0.82238210904947      0.96462534180409
  C   2.90139300243077      1.57061106209324      1.12473873517456
  C   3.66130869396479      0.96425808293932      0.13301038927996
  H   3.36551673098515      2.05515233473074      1.97812019250331
  C   2.96915724306242      0.37283849588965     -0.91570578919632
  H   4.74275249491772      0.95312637907678      0.17546483920214
  H   3.48867635602054     -0.12186213406693     -1.73045828069541
