18
Coordinates from ORCA-job opt
  C   1.00337995205930      0.99194790634643      0.03073379407745
  C   -0.48300377797489      1.00778058015682     -0.03201215266152
  N   1.61769760483035      2.18179240049091      0.00191862010108
  N   1.58853683441954     -0.21059842318507      0.10311563397772
  N   -1.09724134235871      2.03300764308165      0.57278441466618
  N   -1.06864573684447     -0.00713220926316     -0.68055628359655
  C   -2.43196833664765      2.03114103768455      0.51733491038257
  C   -3.14645478527411      1.03405245770608     -0.13524563126600
  H   -2.93545892245528      2.85459343455675      1.01477937134239
  C   -2.40330615496936      0.02190744961959     -0.73004944508799
  H   -4.22803336394048      1.04483793958703     -0.17748145199956
  H   -2.88287751778904     -0.79279840817148     -1.26417087302117
  C   2.95242026547708      2.15278747000312      0.04992390486526
  C   3.66657563694120      0.96393271437866      0.13461005261461
  H   3.45617256845036      3.11411325475537      0.01662314987293
  C   2.92319462608970     -0.20962364540159      0.16095880059850
  H   4.74813712376310      0.95254543505303      0.17713999214028
  H   3.40257432622335     -1.18138803739870      0.23089419299383
