18
Coordinates from ORCA-job opt
  C   1.00521573304527      0.99395942523160      0.02433121711695
  C   -0.48481014880158      1.00577504822442     -0.02414882118469
  N   1.59900995018037      2.07121433691475      0.55580264436958
  N   1.61593313747760     -0.10029175918701     -0.44986991783830
  N   -1.07857591686213      2.20565472563811      0.03611204202133
  N   -1.09614690048043     -0.18045483685320     -0.14299873795363
  C   -2.41255243476932      2.20517387978641     -0.02127871725954
  C   -3.15141414495498      1.03397177957225     -0.13434912670121
  H   -2.89592413827418      3.17669431034187      0.02159139974668
  C   -2.43020134354076     -0.15217332726509     -0.19142378656598
  H   -4.23300259501812      1.04519702616732     -0.17809055888556
  H   -2.92846204257841     -1.11311904076946     -0.27887299192937
  C   2.93304176690066      2.04258818373129      0.60505985888963
  C   3.67153176271678      0.96446877996478      0.13310560507018
  H   3.41676744487279      2.91190549018856      1.04052108519766
  C   2.95004303627818     -0.09931261695405     -0.39437294774002
  H   4.75313889868917      0.95288351929405      0.17631720684108
  H   3.44810693511909     -0.98123292402661     -0.78613645319480
