18
Coordinates from ORCA-job opt
  C   1.00627601663020      0.99136941808633      0.02906790419119
  C   -0.48608460633736      1.00675477252343     -0.03006042879928
  N   1.61131854640006      2.14239366853678      0.35354807066435
  N   1.61125957560071     -0.17211136866678     -0.24750269470036
  N   -1.09110318816270      2.17010050003541      0.24707165065633
  N   -1.09109503363602     -0.14412464526300     -0.35505532590480
  C   -2.42474412369505      2.16975342621991      0.19060906063823
  C   -3.15596550864389      1.03424125848260     -0.13575642742298
  H   -2.91519537618072      3.11235629487849      0.41514123433723
  C   -2.42474308332011     -0.11633181135995     -0.40420278305232
  H   -4.23756336266902      1.04538642189257     -0.17857892034875
  H   -2.91516252075247     -1.04884633934650     -0.66756604578786
  C   2.94495964166896      2.11456500783509      0.40270168571509
  C   3.67615424596948      0.96384206757606      0.13479162025528
  H   3.43542513321158      3.04718413598694      0.66561185589527
  C   2.94490721093697     -0.17179958719974     -0.19103474133266
  H   4.75775182143231      0.95270243740426      0.17762520750822
  H   3.43530661154707     -1.11453665762189     -0.41511092251217
