18
Coordinates from ORCA-job opt
  C   1.00298777107699      0.99311825094980      0.02801576753953
  C   -0.48303724275280      1.00689104987769     -0.02721920238590
  N   1.61792202630467      0.01868898321964     -0.65369389209619
  N   1.58317620585212      1.95294382934352      0.75911848410358
  N   -1.09805977734761     -0.17625789465201      0.09109914607895
  N   -1.06263504463723      2.20189976687913     -0.19641678357493
  C   -2.43322643198032     -0.14733220690325      0.04260092505562
  C   -3.14303654588740      1.03369668419264     -0.13468933567178
  H   -2.93988210790930     -1.10163419287949      0.14995556282971
  C   -2.39773642879755      2.20001625295503     -0.25439364498259
  H   -4.22461149662164      1.04453202309702     -0.17817416163984
  H   -2.87483049299245      3.16401801041946     -0.40272740154744
  C   2.95310242847647      0.02032883664015     -0.59820887457672
  C   3.66331728116203      0.96420925654333      0.13305202614645
  H   3.45942470469819     -0.75979695420215     -1.15853444341921
  C   2.91828269477792      1.92315785779518      0.80788788748499
  H   4.74492154544084      0.95258698010181      0.17556949698240
  H   3.39562091113709      2.69183346662251      1.40805944367337
