18
Coordinates from ORCA-job opt
  C   1.00372580107364      1.00650928102628      0.03064700503467
  C   -0.48391814274970      1.02166087506913     -0.02970374176955
  N   1.55460298250087      0.40489394780064      1.09333424855155
  N   1.65462059860623      1.58228514807699     -0.98851809982529
  N   -1.03758741282917      1.01632009696766     -1.24929091679578
  N   -1.13068159729431      1.02542524737414      1.14348923756177
  C   -2.37285280764861      1.01578144933057     -1.28628450712411
  C   -3.14796317865488      1.02780748545847     -0.13317749590722
  H   -2.82675604887477      1.00243926506597     -2.27263247433691
  C   -2.46469656258684      1.03452485123491      1.07673322927585
  H   -4.22960674565539      1.03078628308552     -0.17528987386667
  H   -2.99381987259558      1.04828062864740      2.02486045977977
  C   2.88964993349319      0.38553334934011      1.12957819739306
  C   3.66828085755971      0.95952570731919      0.13217197159474
  H   3.34051190616501     -0.10892046804694      1.98476659236310
  C   2.98837829612723      1.55701346863644     -0.92199151118539
  H   4.74979260275713      0.94095250284115      0.17360357612621
  H   3.52001939060624      2.03207988077238     -1.74099389686980
