18
Coordinates from ORCA-job opt
  C   1.00419908842555      0.97278175678971      0.02164442158601
  C   -0.48446161128852      0.98903709877209     -0.03863125888916
  N   1.55530122231490      0.93498953472178      1.24234630041107
  N   1.65691030852918      1.01620553414612     -1.14729061089072
  N   -1.03868478121432      1.55024171835336     -1.12136458141446
  N   -1.13249945146902      0.45588204267247      1.00589683517742
  C   -2.37373804939171      1.57137417873414     -1.15255493197344
  C   -3.14965778524509      1.04018789017058     -0.12961225257638
  H   -2.82712015959475      2.03216714914540     -2.02506994951321
  C   -2.46631159514012      0.48323134175648      0.94448949736124
  H   -4.23130300357089      1.06042137179982     -0.16691737717647
  H   -2.99561291300242      0.04339743048482      1.78447533593063
  C   2.89011174352059      0.93684828394715      1.28442981802479
  C   3.67000176684247      0.97059712326862      0.13499534261398
  H   3.34006176708910      0.91378101311581      2.27246025945452
  C   2.99043543919602      1.00877500214292     -1.07632105731929
  H   4.75150150801994      0.96901318254200      0.18089023694344
  H   3.52256750597912      1.03396934743674     -2.02256502774997
