18
Coordinates from ORCA-job opt
  C   1.00388138538863      0.98096193785897      0.02490414260066
  C   -0.48421569583287      1.00083389156952     -0.04154196357893
  N   1.56263764147592      1.69442658057754      1.00792912643408
  N   1.63448549529097      0.26692157178618     -0.91285283721631
  N   -1.04632821764267      2.10174574841269     -0.54967841130996
  N   -1.10935148174482     -0.08156174447543      0.43360871224933
  C   -2.38327632596848      2.10521157177388     -0.59341382295286
  C   -3.14017605653355      1.03684751287159     -0.13032804798249
  H   -2.85003184001376      2.99228773426905     -1.01020678855230
  C   -2.44576489061465     -0.05018318726739      0.38441761141521
  H   -4.22187382450128      1.05153113815526     -0.16725807140834
  H   -2.96362324955355     -0.92240828211136      0.77113145751797
  C   2.89914174572665      1.67435778739916      1.05597710547061
  C   3.66050891446132      0.96558057639886      0.13589043269453
  H   3.36184738845730      2.24561871293826      1.85477263103942
  C   2.97040936176298      0.26819553155026     -0.84693795773263
  H   4.74194756855687      0.95866013992500      0.18151395465702
  H   3.49148308128499     -0.30612722163205     -1.60662727334502
