18
Coordinates from ORCA-job opt
  C   1.00577876668622      1.00897805547269      0.03250382975841
  C   -0.48578333960454      1.02426560927909     -0.02671213115391
  N   1.56067694540553      0.58482858387205      1.17630800357034
  N   1.65964553723396      1.40489644080657     -1.06815209830965
  N   -1.04181302909319      1.21342374180090     -1.23121923675033
  N   -1.13788437378479      0.83130194019814      1.12811405381439
  C   -2.37623413984395      1.21241232271525     -1.27084584159278
  C   -3.15454386073035      1.02731801652534     -0.13480869161612
  H   -2.82797283407261      1.36279075425179     -2.24691478546561
  C   -2.47110936973982      0.83814901054867      1.06011360074509
  H   -4.23615752146603      1.02910630240642     -0.17856454181968
  H   -3.00069144608272      0.68684143959437      1.99608875114569
  C   2.89500800617531      0.56424976289144      1.21207817324965
  C   3.67480035395024      0.95809195351903      0.13161873595298
  H   3.34546532685921      0.21801099933953      2.13760981043997
  C   2.99276394856370      1.37737360542171     -1.00399213382585
  H   4.75636089010953      0.93801978394090      0.17195497073247
  H   3.52339013943427      1.70284167741611     -1.89388046887505
