18
Coordinates from ORCA-job opt
  C   1.00268990003627      0.98244151210469      0.02852503842710
  C   -0.48309692753562      1.00343278989890     -0.04148653924022
  N   1.57100877382298      1.85150446840822      0.87213685837548
  N   1.62600247751447      0.11229472336764     -0.77395193130618
  N   -1.05325930052580      2.17240984060082     -0.35283022333746
  N   -1.10244851800358     -0.14931260347631      0.23843349122084
  C   -2.38942086026618      2.17260749881445     -0.40360639317353
  C   -3.14026008377646      1.03587391430874     -0.13222353865484
  H   -2.86170576815494      3.11382693786716     -0.66763779983536
  C   -2.43845505523172     -0.11793369268863      0.19306592694850
  H   -4.22198478894856      1.04924107922182     -0.17014747545037
  H   -2.95099492832004     -1.04588034226085      0.42736522193655
  C   2.90679084744263      1.82602993209041      0.92303448139841
  C   3.66062014647548      0.96468856786080      0.13611133997682
  H   3.37628044177236      2.51927233475645      1.61418084706684
  C   2.96160382335753      0.11627643621608     -0.71298180928541
  H   4.74214207696019      0.95677821566481      0.18063743966906
  H   3.47618874338099     -0.58065261275521     -1.36732293473621
