18
Coordinates from ORCA-job opt
  C   1.00267184846515      0.99435210398235      0.03171810392761
  C   -0.48278689142830      1.01020003267075     -0.03432347304332
  N   1.57847278304987     -0.19521521254449      0.24376652521160
  N   1.62079398278659      2.16914601025365     -0.13960034661859
  N   -1.05907074481692      0.07585973531506     -0.79971663363825
  N   -1.09942608326376      1.95171580966336      0.69049630081944
  C   -2.39454969206198      0.10392329288068     -0.84739870454853
  C   -3.14183200692734      1.03312644428965     -0.13458465502732
  H   -2.87001929106575     -0.64275600535856     -1.47606885015879
  C   -2.43490308884463      1.94840082270353      0.63515927746719
  H   -4.22349621017866      1.04260430150104     -0.17588181422991
  H   -2.94372771038079      2.70195808429950      1.22852697293117
  C   2.91379499930804     -0.19502177849992      0.30136442878269
  C   3.66211198452013      0.96349874191902      0.13483945494441
  H   3.38827048119902     -1.15403925803752      0.48575468488101
  C   2.95610417324364      2.13847268677723     -0.09070488173230
  H   4.74369773083478      0.95101944895803      0.17731868193689
  H   3.46559473556091      3.08565373922663     -0.23936607190501
