18
Coordinates from ORCA-job opt
  C   1.00604387882158      0.99083479154767      0.03168393555269
  C   -0.48582513880983      1.00747323864681     -0.03261766653266
  N   1.61335995489251      2.15553681527390      0.29781742951325
  N   1.60858755911543     -0.18525404779405     -0.19164941540829
  N   -1.09312272718730      2.15436702793489      0.30212248648143
  N   -1.08845806215356     -0.12845290472846     -0.41025304466564
  C   -2.42679724865366      2.15402015781441      0.24569494057090
  C   -3.15558600727514      1.03442816092144     -0.13636757276369
  H   -2.91929230084449      3.08288367535664      0.51791209712695
  C   -2.42213201353421     -0.10056737634180     -0.45949132247926
  H   -4.23719605295492      1.04548689500514     -0.17888694200796
  H   -2.91067995001323     -1.02003786762445     -0.76825142692636
  C   2.94703663646864      2.12767994720065      0.34693023504124
  C   3.67576534211492      0.96371463290508      0.13542081080739
  H   3.43958221698005      3.07150151331048      0.56149887223183
  C   2.94226450527473     -0.18493663713763     -0.13506570505433
  H   4.75737505517007      0.95261774122888      0.17794142562494
  H   3.43077535258839     -1.13839576351960     -0.31314213711242
