18
Coordinates from ORCA-job mp2_opt
  C   -0.47725273293726      0.01656686517207      0.01212431133823
  C   -1.21181079605224      1.20619886439862      0.05335481496863
  C   -1.20917115191514     -1.17754248234254     -0.04589047632455
  C   -2.59905848707629      1.14748079543139      0.04161739204002
  H   -0.70564572078968      2.16359156351985      0.10208879756289
  H   -0.68924736264175     -2.13031386275954     -0.09449950775838
  C   -3.22060807615820     -0.09698888041800     -0.00867596743019
  H   -3.19363287705983      2.05286159313136      0.07370380220672
  H   -4.30305524322567     -0.17732757823438     -0.01529295628275
  C   0.98259107320317      0.01435718153761      0.01317009069540
  N   3.09236094634612     -0.58914060378206      0.02797622571260
  H   3.95619454514652     -1.10914371558686      0.05614904512184
  N   -2.54293330035178     -1.25224754069305     -0.05296805579588
  C   1.83567848411174     -1.08529987710337      0.07110954885892
  H   1.65112379915816     -2.14480346058420      0.14853914231941
  N   3.14678481933248      0.74608468521528     -0.05721063777344
  C   1.85791064756954      1.11767749515827     -0.06804416679231
  H   1.62124743334009      2.16800795793953     -0.14115840266715
