18
Coordinates from ORCA-job mp2_opt
  C   -0.48347274722074      0.01785678214128     -0.00457660692270
  C   -1.20522794047291      1.19635769851592      0.19559997014361
  C   -1.20945058741913     -1.16362350460343     -0.19358918569641
  C   -2.59403045483190      1.14015826795142      0.19368436160589
  H   -0.67950024744605      2.13276282813748      0.34888027645625
  H   -0.67681151988640     -2.09731222070107     -0.35346134182812
  C   -3.21575453732045     -0.09005996979632     -0.00328715226365
  H   -3.18970068975149      2.03264357273702      0.34488093274291
  H   -4.29870517938916     -0.16636152228839     -0.00756001678375
  C   0.98579981372312      0.00418489322022     -0.00941466597837
  N   3.09096803027538     -0.15267843689529      0.57465940098399
  H   3.95483589359406     -0.29025788550295      1.07659868813606
  N   -2.54538122267014     -1.23411265041798     -0.19455328026415
  C   1.83082159106070     -0.28113761610314      1.05444365491256
  H   1.62673939646520     -0.55592055064141      2.07747965435570
  N   3.14607134448852      0.19627760900269     -0.71606699318741
  C   1.85593432383570      0.29556632782194     -1.07674993060783
  H   1.60234873296570      0.56655737742202     -2.09065576580459
