18
Coordinates from ORCA-job mp2_opt
  C   -0.48066478312153      0.04601384182605      0.00229198741074
  C   -1.22721572646713      1.15841736735030     -0.39429360046913
  C   -1.18463260433386     -1.10059689288942      0.39087373470527
  C   -2.61431911597596      1.08175611808893     -0.36318845272566
  H   -0.72145402116790      2.05880839362683     -0.72727327498356
  H   -0.63434890774475     -1.98402146536082      0.70422258013259
  C   -3.21179482555808     -0.10826731277651      0.04424703240390
  H   -3.22748156400977      1.92352070155340     -0.66249547981632
  H   -4.29300937580751     -0.20199669094876      0.07120617007175
  C   0.98276161971168      0.03935632195063     -0.02706012100493
  N   3.09927891877472      0.45204070531994      0.35893579688561
  H   3.97343109704740      0.83257980237802      0.68797029152408
  N   -2.51827125387102     -1.19234812885015      0.41694809112917
  C   1.85061043768869      0.88179698811477      0.65691038900683
  H   1.66946860560594      1.71297384435241      1.32044009463362
  N   3.12720719859426     -0.60864880523126     -0.45800648786256
  C   1.83064174022976     -0.86824176454699     -0.69049687298796
  H   1.55630156040508     -1.68559102395736     -1.34061387805343
