18
Coordinates from ORCA-job mp2_opt
  C   -0.47791302253208      0.02181740265681     -0.00557829594895
  C   -1.20849194058234      1.19057736263592     -0.24064564631217
  C   -1.20527309334956     -1.15054162336543      0.24062368699339
  C   -2.59593631846497      1.13469720778226     -0.21895533964365
  H   -0.69380507463437      2.12082609668684     -0.45785262511165
  H   -0.67690313612196     -2.07610474135405      0.45266254111754
  C   -3.21566775210306     -0.08858061819506      0.02360767585135
  H   -3.19272118373176      2.02081990111253     -0.40030468164228
  H   -4.29826318057777     -0.16735527524059      0.03638623585154
  C   0.98094286294349      0.00601885162339     -0.00529060038795
  N   3.09335540552358      0.55987251892567      0.18650696512525
  H   3.96220317241918      1.04105479728067      0.36224406525682
  N   -2.53985784779133     -1.22304313126945      0.25097358585361
  C   1.83988508272919      1.04249923325467      0.34597305989656
  H   1.65332618078715      2.04014170105688      0.71148235360986
  N   3.13624326798619     -0.70752181809744     -0.24565672287172
  C   1.84398154169021     -1.05004925298742     -0.36221982370110
  H   1.58857603581021     -2.03597661250620     -0.72013243393644
