18
Coordinates from ORCA-job mp2_opt
  C   -0.48245918227720      0.01668906402259     -0.01969375200124
  C   -1.19607946805939      1.14817397473587      0.38175371542939
  C   -1.21719485832697     -1.11538297209596     -0.39038095953750
  C   -2.58499789776098      1.09923047977483      0.38210629597846
  H   -0.66356405952669      2.04266392722426      0.68715033780948
  H   -0.69123856286417     -2.01228287462455     -0.70725135479780
  C   -3.21550087656390     -0.07964751997610     -0.00754855459220
  H   -3.17427182182749      1.95622405211108      0.68616832567631
  H   -4.29884150217649     -0.14998422720902     -0.01310947928592
  C   0.98516155356803     -0.00511549515235     -0.02503211202857
  N   3.08514005337674     -0.34708323353494      0.49514773117286
  H   3.94491173672306     -0.64955708799113      0.92697223629822
  N   -2.55323102666093     -1.17962020353797     -0.38985886202472
  C   1.82146658195160     -0.64418855398463      0.88062378306511
  H   1.60869856665869     -1.26104311421097      1.73965892773871
  N   3.15109380610572      0.43829887005351     -0.58687714178323
  C   1.86422588364852      0.65379702431187     -0.90521534857451
  H   1.61948507401187      1.26512889008360     -1.76084278854284
