18
Coordinates from ORCA-job mp2_opt
  C   -0.48303870152141      0.03916957428631     -0.00274717120854
  C   -1.22365913337941      1.17484417607230      0.33155733038363
  C   -1.19079533600597     -1.12302085411323     -0.33042271760158
  C   -2.61151052334115      1.10107326306461      0.30980777717985
  H   -0.71288483022064      2.09224953179032      0.60438365614188
  H   -0.64359012126395     -2.02561440125361     -0.58948489441221
  C   -3.21386170937740     -0.10548782135263     -0.03664805272155
  H   -3.22120101326032      1.96055133361807      0.56218859183164
  H   -4.29550797260115     -0.19558588790150     -0.06019856995383
  C   0.98555025485513      0.03508812673931      0.01448548004253
  N   3.09826793808687      0.26511953050876     -0.51683856997668
  H   3.96882009892865      0.48610435317775     -0.97557118333829
  N   -2.52524254059324     -1.21001004698463     -0.35347813594169
  C   1.84517659554617      0.52941656616915     -0.95735322142587
  H   1.65502837507240      1.02456364822330     -1.89668606947016
  N   3.13558084931249     -0.36654425658421      0.66282148657155
  C   1.84083021246402     -0.51249741421567      0.98915679640777
  H   1.57299155729891     -1.00031742124439      1.91439446749158
