18
Coordinates from ORCA-job mp2_opt
  C   -0.48135194470020      0.04772682587953      0.00434395174390
  C   -1.22856847776082      1.15468906591616     -0.40535849303368
  C   -1.18388779652857     -1.09586362627227      0.40356204159414
  C   -2.61572422136997      1.07616604891738     -0.37590307846581
  H   -0.72315265561410      2.05268799138977     -0.74508170427102
  H   -0.63234598305702     -1.97579353905186      0.72433281620423
  C   -3.21193698719568     -0.10999314779199      0.04425680205312
  H   -3.22975134934148      1.91375382506602     -0.68498285110405
  H   -4.29307209850476     -0.20473491693174      0.07120436754674
  C   0.98343037686567      0.04234323499074     -0.02503931473928
  N   3.10009496087965      0.42243919519549      0.39141770780536
  H   3.97448646199889      0.77727755817237      0.74737750605559
  N   -2.51755642420774     -1.18905309853406      0.42962786918187
  C   1.85158626090467      0.83000122462326      0.72048376053355
  H   1.67083524606991      1.61117288293403      1.44231894540046
  N   3.12717030351199     -0.57413727070432     -0.50222653241262
  C   1.83032691373852     -0.81400232128919     -0.75411751247525
  H   1.55492341431105     -1.58181493250932     -1.46159328161723
