18
Coordinates from ORCA-job mp2_opt
  C   -0.48361239498782      0.03181280879190     -0.00631076708663
  C   -1.21828073428727      1.20035624706623      0.20473318137563
  C   -1.19672457761429     -1.15522795334382     -0.20952841577518
  C   -2.60645718406451      1.13071321685500      0.19390637005883
  H   -0.70282736789152      2.13950063259405      0.37539480403968
  H   -0.65393920592992     -2.08253016603534     -0.37248555217330
  C   -3.21470185541445     -0.10305736695689     -0.02150924805704
  H   -3.21180222134546      2.01528276806531      0.35306686952699
  H   -4.29680411845257     -0.18997763574965     -0.03362791001430
  C   0.98565246697167      0.02686501445045      0.00635978090968
  N   3.09692987662736      0.15965568759675     -0.56133289428464
  H   3.96627945077025      0.28809628333037     -1.05619492841867
  N   -2.53182170375521     -1.23836136634459     -0.22068798932056
  C   1.84236426350310      0.31915983925893     -1.04627119998118
  H   1.64985668939151      0.61363432773485     -2.06606242775445
  N   3.13759317891670     -0.21795106443409      0.72185595567873
  C   1.84362951454949     -0.30352841490262      1.07213471529669
  H   1.57859292301295     -0.59493085797685      2.07744165597973
