18
Coordinates from ORCA-job mp2_opt
  C   -0.47815865590070      0.02424457353440     -0.00488406270029
  C   -1.21025288108048      1.18482534794627     -0.27247308950531
  C   -1.20241986037275     -1.14318590050455      0.27101203609914
  C   -2.59770541476679      1.12706204094844     -0.24777051081480
  H   -0.69562030908310      2.10889311861270     -0.51501744889954
  H   -0.67078207142708     -2.06169733157839      0.50504823084286
  C   -3.21473091489301     -0.09050084952359      0.02834630560230
  H   -3.19660738878802      2.00647975876044     -0.45309637913017
  H   -4.29717935725473     -0.17082635365295      0.04434078918376
  C   0.98094838699782      0.00946636616657     -0.01071411567661
  N   3.09346199680945      0.54838274991267      0.21513191303418
  H   3.96283031768860      1.01831163080636      0.41680020838134
  N   -2.53689467750658     -1.21748381713667      0.28483333332005
  C   1.84028443977106      1.02491362833406      0.39541762557703
  H   1.65266232724520      2.00312180617019      0.80978925345545
  N   3.13508135153309     -0.69620721715907     -0.27937292227001
  C   1.84234142936294     -1.03011467173463     -0.41545089772666
  H   1.58406428166508     -1.99666587990224     -0.82125426877273
