18
Coordinates from ORCA-job mp2_opt
  C   -0.48007070227883      0.04135479377954     -0.00103126217571
  C   -1.22360971231046      1.16244378184865      0.37692370590500
  C   -1.18789730947897     -1.10832324418399     -0.37374877421260
  C   -2.61080512848962      1.08993417647147      0.34613927882249
  H   -0.71556915687618      2.06591743898074      0.69804110008875
  H   -0.64095479613138     -1.99752331955652     -0.67649622816583
  C   -3.21210674861234     -0.10453125037720     -0.04241895473753
  H   -3.22123187278235      1.93830064690932      0.63211451782370
  H   -4.29358687128716     -0.19543541557389     -0.06791048133928
  C   0.98213805590381      0.03286544478260      0.02558778832519
  N   3.09783940140950      0.47765734582568     -0.32871448221723
  H   3.97110385392837      0.88121244292335     -0.63170080708645
  N   -2.52171551026651     -1.19625222863596     -0.39830425082064
  C   1.84825018279191      0.92133177307948     -0.60037371719565
  H   1.66528280082141      1.79142567226406     -1.21141745933794
  N   3.12850637025254     -0.63251985985159      0.41985931673755
  C   1.83261665470467     -0.91152940619898      0.63236850333045
  H   1.56095848870160     -1.76832379248677      1.23077120625574
