18
Coordinates from ORCA-job mp2_opt
  C   -0.48033204903543      0.01995693270330      0.03137890281577
  C   -1.19314326748239      1.14733688520112     -0.38469799636788
  C   -1.21739391837326     -1.11020471485773      0.40549009998701
  C   -2.58171386885258      1.09720808822741     -0.39179140447307
  H   -0.66042951611249      2.03804263752309     -0.70083560599522
  H   -0.69338302837231     -2.00217043222462      0.73971007280262
  C   -3.21392043990120     -0.08037524699738     -0.00050277715482
  H   -3.16967733400590      1.95102045525102     -0.70713089424880
  H   -4.29710768029751     -0.15242940572758     -0.00340080313708
  C   0.98327593042933     -0.00254781436025      0.03750063378378
  N   3.08034124117516     -0.47171041146280     -0.38716889045738
  H   3.93777724257241     -0.87673126695391     -0.73068657534768
  N   -2.55282174928081     -1.17717040068835      0.39349465764542
  C   1.81527607120470     -0.86557207953090     -0.66466491606774
  H   1.59837524317770     -1.69025642026861     -1.32553471912129
  N   3.15198829110156      0.58362719186763      0.43406859468182
  C   1.86732987392088      0.87740592930168      0.69090907697605
  H   1.62838095813216      1.69793907299686      1.35092954367850
