18
Coordinates from ORCA-job mp2_opt
  C   -0.48100049076527      0.01887644702865      0.03002235471892
  C   -1.19259645164796      1.14238586799576     -0.39780491089627
  C   -1.21860522786860     -1.10672068999821      0.41594290632725
  C   -2.58132008036321      1.09367582361302     -0.40370166195741
  H   -0.65874626976990      2.02958398827232     -0.72166695074243
  H   -0.69486945680348     -1.99641358008844      0.75629861166747
  C   -3.21437880250164     -0.07865122346925      0.00165091492244
  H   -3.16864584651115      1.94470475280231     -0.72757676338015
  H   -4.29766687437367     -0.14915063439934      0.00114733945353
  C   0.98394907569311     -0.00497983807197      0.03610441471309
  N   3.08122698455235     -0.44119176240115     -0.42072339890720
  H   3.93885375164301     -0.82067984478123     -0.79173690552242
  N   -2.55430976364774     -1.17195946850586      0.40668874604520
  C   1.81611845960022     -0.81206174620465     -0.72898283960727
  H   1.59942859130987     -1.58598897220845     -1.44866671221071
  N   3.15224679241188      0.54829883675436      0.47832452512981
  C   1.86733542775820      0.82230222369083      0.75547166424323
  H   1.62749018128398      1.59178781997131      1.47398766600291
