18
Coordinates from ORCA-job mp2_opt
  C   -0.47892042405628      0.02204166570390      0.02493506401402
  C   -1.19794301039645      1.16169518743393     -0.34550241192324
  C   -1.21185670397900     -1.12227174367273      0.36401655321402
  C   -2.58618858849878      1.10726020424098     -0.34866808654675
  H   -0.67075240498164      2.06483765109622     -0.63455938057936
  H   -0.68495697201439     -2.02253236809340      0.67073892319821
  C   -3.21339316226847     -0.08618919331543      0.00043501942198
  H   -3.17789856147202      1.97028114988211     -0.63012079405006
  H   -4.29627465057038     -0.16242042504646     -0.00228953726557
  C   0.98228950622498      0.00549538722053      0.03001306639170
  N   3.08109541595503     -0.51591432524331     -0.32031361359842
  H   3.93958427028543     -0.96029692544987     -0.60810785407680
  N   -2.54665793601729     -1.19378527000997      0.35288505260193
  C   1.81728237055390     -0.94082282409524     -0.55216310215404
  H   1.60345920394243     -1.83950118863267     -1.10942112315745
  N   3.15029266262101      0.63418145145915      0.36324141046268
  C   1.86486391816855      0.95882914172662      0.57403447626324
  H   1.62466806650337      1.85352642479565      1.12890033778393
