18
Coordinates from ORCA-job mp2_opt
  C   -0.47894636369787      0.03196290877759      0.00242589335673
  C   -1.21627350182091      1.17330559683299      0.32985766307530
  C   -1.19521037799140     -1.12622570841503     -0.32641939201311
  C   -2.60363895375733      1.10912642005942      0.30064748771243
  H   -0.70409445335924      2.08615035477529      0.61626052908449
  H   -0.65587757291107     -2.02988544539714     -0.59831029194478
  C   -3.21316288489570     -0.09677196937934     -0.03662373618180
  H   -3.20814669965065      1.97330174970380      0.54949988329995
  H   -4.29516766412928     -0.18193333167524     -0.05824318136291
  C   0.98129604712725      0.02007516220588      0.02051638241119
  N   3.09505122654239      0.51853072895639     -0.27137171679191
  H   3.96609964765298      0.95957200229802     -0.52442721237767
  N   -2.52937193322315     -1.20653167309790     -0.34656489185441
  C   1.84332410357961      0.98161240938429     -0.49443794613247
  H   1.65662368261954      1.91330528747522     -1.00530949294189
  N   3.13201703844127     -0.66957951360759      0.34676870582366
  C   1.83783832657976     -0.97996942104865      0.52155489304191
  H   1.57297433289380     -1.89938255784801      1.02196742379528
