18
Coordinates from ORCA-job mp2_opt
  C   -0.47774821601716      0.02038976024623     -0.00585578823844
  C   -1.20763921307836      1.19608856205576     -0.20692097263999
  C   -1.20756491259303     -1.15689836737403      0.20863477585939
  C   -2.59505101312854      1.14131866192571     -0.18863568340239
  H   -0.69365726369906      2.13265194264917     -0.39643750503473
  H   -0.68200851985350     -2.08908257791102      0.39641223225614
  C   -3.21675869472570     -0.08735639137126      0.01876540410964
  H   -3.19014834054232      2.03338542196101     -0.34466297883545
  H   -4.29944157382575     -0.16512938581762      0.02821619083774
  C   0.98102285956237      0.00387780436976     -0.00001190872382
  N   3.09381635415807      0.56917768012980      0.15708259525733
  H   3.96234558602245      1.05979096750854      0.30630182751438
  N   -2.54222156240250     -1.22828847241522      0.21560070672399
  C   1.84034378497132      1.05767345705002      0.29570341724003
  H   1.65569623733602      2.07261590086610      0.61088050399911
  N   3.13717343863751     -0.71787775896062     -0.21175806618548
  C   1.84517667130643     -1.06704860775417     -0.30817379569433
  H   1.59204837787176     -2.06996559715813     -0.61670195504312
