18
Coordinates from ORCA-job mp2_opt
  C   -0.47724660474078      0.01656888286650     -0.01213247347509
  C   -1.21180351151957      1.20620065242538     -0.05337947801419
  C   -1.20916241607121     -1.17754026064968      0.04589102144059
  C   -2.59905072524908      1.14748162991916     -0.04164110890352
  H   -0.70563778261667      2.16359209917905     -0.10212421175348
  H   -0.68923776094207     -2.13030949022887      0.09451306930590
  C   -3.22059929006874     -0.09699072746488      0.00866633232110
  H   -3.19362993941632      2.05285824464869     -0.07374303015101
  H   -4.30304669868143     -0.17732639838964      0.01528036417732
  C   0.98259760785419      0.01435834634139     -0.01317118527392
  N   3.09236312224134     -0.58915257657061     -0.02798671794458
  H   3.95619488523241     -1.10915950165197     -0.05616140676290
  N   -2.54292593650486     -1.25224764954479      0.05296939142829
  C   1.83567748926699     -1.08530635550710     -0.07109937449232
  H   1.65112429754917     -2.14480980703385     -0.14852840060972
  N   3.14679631480077      0.74607279052552      0.05717812231579
  C   1.85792388741575      1.11767392262055      0.06803204666474
  H   1.62127306145010      2.16800719851516      0.14114103972700
