18
Coordinates from ORCA-job mp2_opt
  C   -0.47766754732735      0.01970490635085      0.00570878304839
  C   -1.20829577452910      1.20546889494216      0.13341611904856
  C   -1.21054035126738     -1.16683783369610     -0.13729747244472
  C   -2.59558246684623      1.15126215289133      0.12178951885242
  H   -0.69736969747634      2.15403369794520      0.25931500627243
  H   -0.68961709345402     -2.11103525315980     -0.26630243692942
  C   -3.21928798254853     -0.08661616772854     -0.01023365842436
  H   -3.18883938176653      2.05250034197543      0.22188767815675
  H   -4.30196031491558     -0.16399002503272     -0.01429139406865
  C   0.98139668173629      0.00269185488983     -0.00687678626646
  N   3.09553393799337      0.58278765944709     -0.09645421391133
  H   3.96381359407307      1.08708729079947     -0.19131852031633
  N   -2.54515955074969     -1.23729461336598     -0.13932883069008
  C   1.84221419904483      1.08158968169337     -0.18894756482287
  H   1.66214386728482      2.12477578912080     -0.39498894872789
  N   3.13885207221550     -0.73497240073194      0.13845219699392
  C   1.84738466407096     -1.09280619216960      0.19584855058688
  H   1.59948614446190     -2.12348478417087      0.39740197364276
