18
Coordinates from ORCA-job mp2_opt
  C   -0.47895078605748      0.03195443820438     -0.00237538801978
  C   -1.21634992408621      1.17323497838930     -0.32985580125695
  C   -1.19514115053998     -1.12623003025872      0.32664665295636
  C   -2.60371088812416      1.10900850832356     -0.30052102206307
  H   -0.70422922321894      2.08606929529439     -0.61638893107968
  H   -0.65575099063324     -2.02983896835765      0.59858234016605
  C   -3.21316103426816     -0.09687925540619      0.03692453907983
  H   -3.20827466475341      1.97313227499980     -0.54940804588392
  H   -4.29515847465178     -0.18207496285822      0.05864621833410
  C   0.98128722713098      0.02011705452651     -0.02059886551168
  N   3.09506561534892      0.51864214551798      0.27102402265080
  H   3.96612746671479      0.95973567182873      0.52393789220996
  N   -2.52929695553331     -1.20658076176258      0.34691680876534
  C   1.84334777288918      0.98171797895954      0.49417487816675
  H   1.65668370441703      1.91344487630800      1.00499428653709
  N   3.13199079055712     -0.66950987971048     -0.34704026034682
  C   1.83780258665784     -0.97994568878061     -0.52166116087059
  H   1.57290492815082     -1.89940467521773     -1.02196716383379
