18
Coordinates from ORCA-job mp2_opt
  C   -0.48064875956006      0.04600156447076     -0.00226815297233
  C   -1.22715606790704      1.15846244229715      0.39423410142597
  C   -1.18466405997718     -1.10063411626180     -0.39069601999913
  C   -2.61426205781427      1.08183963831673      0.36320314549577
  H   -0.72135601924693      2.05887732342871      0.72709110028643
  H   -0.63440278698525     -1.98409423429730     -0.70398177936365
  C   -3.21178774939465     -0.10821414737240     -0.04407814992003
  H   -3.22737769514101      1.92365726684625      0.66245343064246
  H   -4.29300639369953     -0.20190332844296     -0.07097192089796
  C   0.98277337226645      0.03932684454831      0.02699505626265
  N   3.09927128264959      0.45196260363321     -0.35917347442785
  H   3.97339381925143      0.83250526817445     -0.68828123934179
  N   -2.51830620862004     -1.19234901772386     -0.41669655319663
  C   1.85058320726891      0.88168253141391     -0.65712399411581
  H   1.66937574836761      1.71279478244580     -1.32071626688226
  N   3.12724666943681     -0.60863115020835      0.45789929947027
  C   1.83069117197123     -0.86825359543757      0.69041160797942
  H   1.55634652713395     -1.68554167583103      1.34060280955448
