18
Coordinates from ORCA-job mp2_opt
  C   -0.47728368770692      0.01921458130298     -0.01098130471554
  C   -1.21031632670174      1.19321815917063     -0.21036204904421
  C   -1.20385592929388     -1.15942636886146      0.20625201936784
  C   -2.59770188677683      1.13320070994937     -0.19218278657615
  H   -0.69855615595792      2.13139185454239     -0.39558771493619
  H   -0.67537518873805     -2.08937662431043      0.39955734769614
  C   -3.21592784018396     -0.09736970364034      0.01378529099099
  H   -3.19564742885946      2.02365714478635     -0.34601539745660
  H   -4.29826783236817     -0.17862358408118      0.02279445648694
  C   0.98139519085865      0.01738328502320     -0.01070740820013
  N   3.08829817233754     -0.57220241776065     -0.15461577066867
  H   3.95186760190656     -1.07322088249468     -0.29806995338619
  N   -2.53778082840996     -1.23624541657757      0.21198329562638
  C   1.83024969160815     -1.04613018789023     -0.30241384016278
  H   1.63568054943379     -2.05858437778846     -0.61912316934886
  N   3.14441799292601      0.71404125506865      0.21514833337943
  C   1.85595269157516      1.07781912150548      0.30333354331821
  H   1.61297721435102      2.08366045205595      0.61088210762939
