18
Coordinates from ORCA-job mp2_opt
  C   -0.48296660134918      0.01677339005002      0.01219984638188
  C   -1.20034854035971      1.16693651183023     -0.32352079510574
  C   -1.21385509745045     -1.13446052529644      0.32675083985871
  C   -2.58925496505878      1.11524747384843     -0.32152697616637
  H   -0.67086014392041      2.07831174912530     -0.58029609185577
  H   -0.68513171070030     -2.04621677141968      0.59228752968904
  C   -3.21591315851481     -0.08373889254270      0.00809105510482
  H   -3.18135500177857      1.98635782503090     -0.57597479807895
  H   -4.29910101073172     -0.15665272925725      0.01478133135626
  C   0.98568987446940     -0.00154938471164      0.01691161909421
  N   3.08815609964642     -0.26949293525413     -0.53644211397814
  H   3.94973982602005     -0.50681902680671     -1.00389295373189
  N   -2.54983225230580     -1.20076514506534      0.32908171311119
  C   1.82585984795811     -0.50052331208461     -0.96933500124622
  H   1.61648617628391     -0.98263459624605     -1.91138817001835
  N   3.14943910605978      0.34348394116535      0.65208498896944
  C   1.86101687606773      0.51189600522890      0.99234148754503
  H   1.61219567566431      0.98840842240541      1.92871848907084
