18
Coordinates from ORCA-job mp2_opt
  C   -0.47730599811783      0.01726938622291      0.01899612394815
  C   -1.21175727058099      1.20127907847539      0.14071055687662
  C   -1.20605977897588     -1.17083241507931     -0.13026047233206
  C   -2.59896259529904      1.14195128762031      0.11943265731822
  H   -0.70356388209685      2.15077741002460      0.26691291681148
  H   -0.68157537681208     -2.11371134330566     -0.25965125677585
  C   -3.21833688474966     -0.09756491645263     -0.01560341094584
  H   -3.19558404915143      2.04158841696257      0.21351325971693
  H   -4.30067435692891     -0.17825590476575     -0.02679793732927
  C   0.98180316680257      0.01635613250174      0.02039284363133
  N   3.09090746962468     -0.58316106396435      0.08902633752538
  H   3.95514611372895     -1.09611780026594      0.17459580524951
  N   -2.53988713181396     -1.24658429946903     -0.14068067454942
  C   1.83428443789937     -1.07066274129105      0.19513272893480
  H   1.64677185604024     -2.11197529868412      0.40326317522941
  N   3.14459453793600      0.73404939589608     -0.14660533777776
  C   1.85572345179426      1.10330349356548     -0.19061001695941
  H   1.61513629070057      2.13642918200877     -0.38959429857224
