18
Coordinates from ORCA-job mp2_opt
  C   -0.48182540316676      0.01691366917957     -0.02602649946998
  C   -1.19316303734568      1.14101360338375      0.40008641822003
  C   -1.21915284769835     -1.10788778299758     -0.41401224648532
  C   -2.58202963322383      1.09348272821428      0.40328953915061
  H   -0.65888558049426      2.02831663617598      0.72292848788915
  H   -0.69523186126195     -1.99871590101621     -0.75093795731439
  C   -3.21504178882851     -0.07777202047928     -0.00502113947391
  H   -3.16941318415157      1.94505011016556      0.72569080789022
  H   -4.29844188902089     -0.14704182418906     -0.00788433871863
  C   0.98453199756954     -0.00683021252221     -0.03181443928004
  N   3.08288735560144     -0.40041429830106      0.45704520817434
  H   3.94146605711776     -0.74680232198211      0.85708908201796
  N   -2.55511887974934     -1.17146259173456     -0.40905731128246
  C   1.81845755139793     -0.74224599774754      0.80021612582809
  H   1.60352104578549     -1.45065675272612      1.58493614204139
  N   3.15162591802879      0.50338754756364     -0.52799292179276
  C   1.86585006533278      0.75111111740059     -0.82588140738380
  H   1.62381111410741      1.45404029161236     -1.60890455001048
