18
Coordinates from ORCA-job mp2_opt
  C   -0.47948487213620      0.03655313665339     -0.00054620492871
  C   -1.21992067506909      1.16758332245162     -0.35489627517506
  C   -1.19144357750685     -1.11719464378017      0.35172734244300
  C   -2.60720551178732      1.09932681690532     -0.32457043967389
  H   -0.70969702756320      2.07539890724308     -0.66006724732973
  H   -0.64818941609392     -2.01338887629505      0.64015214151101
  C   -3.21255933307087     -0.10067541799231      0.04001871942680
  H   -3.21473660237125      1.95542990276175     -0.59315658643115
  H   -4.29430740493631     -0.18870309772746      0.06376949921205
  C   0.98164929871047      0.02635383665596     -0.02363685650994
  N   3.09635038478739      0.49976456091864      0.29938850269289
  H   3.96851327715381      0.92327359636815      0.57731516295005
  N   -2.52543580039842     -1.20125062068247      0.37433752220631
  C   1.84568190248734      0.95421051025734      0.54609616545452
  H   1.66071679112987      1.85740881914441      1.10639139242351
  N   3.13020271736238     -0.65256188787598     -0.38282186393013
  C   1.83514718931305     -0.94840983841655     -0.57625220392756
  H   1.56679465998912     -1.83886502658968     -1.12492077041399
