18
Coordinates from ORCA-job mp2_opt
  C   -0.48246639589444      0.01671468513541      0.01972726222167
  C   -1.19611789476290      1.14813066182324     -0.38185444121105
  C   -1.21717565727440     -1.11530976776565      0.39061702397877
  C   -2.58503618299058      1.09917635348656     -0.38213720221309
  H   -0.66363065166791      2.04258285692286     -0.68740934493203
  H   -0.69119067438650     -2.01215518535655      0.70759226999046
  C   -3.21551049995121     -0.07965057695834      0.00772068617949
  H   -3.17432492564179      1.95612211472525     -0.68630288163822
  H   -4.29884971008815     -0.14999329555668      0.01334099956031
  C   0.98515341713090     -0.00508865035000      0.02498795827850
  N   3.08508916506646     -0.34718991395718     -0.49528422623727
  H   3.94481990048141     -0.64974571091492     -0.92713177959999
  N   -2.55321081218275     -1.17955846827749      0.39016495906068
  C   1.82138076696894     -0.64430593943220     -0.88063731178674
  H   1.60852635083398     -1.26127994548570     -1.73956478366470
  N   3.15113525691366      0.43835415506194      0.58661813561239
  C   1.86429546297432      0.65394011671704      0.90500759870761
  H   1.61962708447096      1.26540351018242      1.76056107769322
