18
Coordinates from ORCA-job mp2_opt
  C   -0.47816477904334      0.02423514690068      0.00487700319125
  C   -1.21027018162865      1.18481320253694      0.27244958746398
  C   -1.20241670094062     -1.14319954617713     -0.27102066756513
  C   -2.59772227318129      1.12703682500627      0.24773582218523
  H   -0.69565555230139      2.10889337558708      0.51499124418437
  H   -0.67077147359799     -2.06171138811515     -0.50504639590407
  C   -3.21473671454778     -0.09052996965740     -0.02837910662490
  H   -3.19662579190081      2.00645826506087      0.45304901860722
  H   -4.29718567686466     -0.17087004706258     -0.04438297049458
  C   0.98094477549435      0.00946865684873      0.01071178390083
  N   3.09345259745147      0.54841413818001     -0.21508641574870
  H   3.96282169649352      1.01834903683642     -0.41674144331018
  N   -2.53689251138775     -1.21751191000219     -0.28485452070532
  C   1.84027558483129      1.02492068084364     -0.39542213100063
  H   1.65265041454190      2.00312530399310     -0.80980385965890
  N   3.13508111433868     -0.69617834793578      0.27941560588458
  C   1.84233799220909     -1.03010383202963      0.41545426649234
  H   1.58405848003399     -1.99665859081387      0.82125217910260
