18
Coordinates from ORCA-job mp2_opt
  C   -0.48135769616561      0.04773180579323     -0.00435415739483
  C   -1.22860965472355      1.15469590601331      0.40527628654962
  C   -1.18385749668817     -1.09589127666757     -0.40354576043890
  C   -2.61576343460478      1.07614605459412      0.37578181443066
  H   -0.72322694163946      2.05272090656573      0.74497663646236
  H   -0.63228453251447     -1.97581771445363     -0.72426712400300
  C   -3.21193951505440     -0.11004883357630     -0.04433917088027
  H   -3.22981640302885      1.91373444362110      0.68480482093071
  H   -4.29307050559639     -0.20481528047586     -0.07131025165729
  C   0.98342133371699      0.04237179011573      0.02507205801754
  N   3.10009899467248      0.42248153836730     -0.39131842384702
  H   3.97449841966649      0.77732282356807     -0.74725371806997
  N   -2.51752249847714     -1.18910931869481     -0.42964322098825
  C   1.85159415751830      0.83000937313364     -0.72044991685680
  H   1.67085699753440      1.61115609633162     -1.44231413319186
  N   3.12715059852919     -0.57409246539816      0.50232856213344
  C   1.83030407789563     -0.81395095149125      0.75419906735457
  H   1.55488809895933     -1.58174689734626      1.46168563144928
