18
Coordinates from ORCA-job mp2_opt
  C   -0.47836321649489      0.02240203588964      0.01818203997033
  C   -1.20108056398067      1.16914599836301     -0.32258373252170
  C   -1.20895238002062     -1.12945693691186      0.33695326644794
  C   -2.58916423806481      1.11271786100978     -0.32164329549362
  H   -0.67735852639884      2.07946698223282     -0.59489703318063
  H   -0.68057415555221     -2.03485804005664      0.62554294297310
  C   -3.21349342519115     -0.08919017571696      0.00266187793932
  H   -3.18302220883527      1.98111690302950     -0.58119208120271
  H   -4.29622989755762     -0.16732927388089      0.00189045370447
  C   0.98191705522002      0.00943013479484      0.02256642919674
  N   3.08228200899818     -0.53232111952568     -0.28687002673262
  H   3.94180037498434     -0.99201360845684     -0.54619173418127
  N   -2.54347598787401     -1.20295425412401      0.32860497405638
  C   1.81948115961637     -0.96874623529715     -0.50113818573477
  H   1.60855836961734     -1.89608432216906     -1.01046259493130
  N   3.14906085305430      0.65361320278319      0.33313203867057
  C   1.86293180365910      0.98997996305557      0.51915409840302
  H   1.62157497482043      1.91323488498074      1.02450856261675
