18
Coordinates from ORCA-job mp2_opt
  C   -0.48102245192695      0.01890762068786     -0.03001336247379
  C   -1.19263831539854      1.14241470215818      0.39778663309988
  C   -1.21861222392224     -1.10669709228667     -0.41594864603586
  C   -2.58136242356542      1.09369267895515      0.40364757828174
  H   -0.65880743101267      2.02961995351111      0.72166229891059
  H   -0.69485744024551     -1.99638702773248     -0.75628462771405
  C   -3.21440205330834     -0.07864075037078     -0.00171743420858
  H   -3.16870513316279      1.94471770141861      0.72750391938919
  H   -4.29769049139142     -0.14914676287523     -0.00124065507751
  C   0.98392822399824     -0.00496467289670     -0.03605111591902
  N   3.08116638186891     -0.44124663278729      0.42089455657174
  H   3.93876244698930     -0.82073771751350      0.79197693792004
  N   -2.55431528398643     -1.17194503529727     -0.40673295909520
  C   1.81602990836922     -0.81207951583981      0.72907839679013
  H   1.59926249774277     -1.58598632944519      1.44876148487241
  N   3.15226826685560      0.54822302372318     -0.47816898736433
  C   1.86738168691848      0.82225238848611     -0.75540763318007
  H   1.62760783517779      1.59173046810472     -1.47395638476730
