18
Coordinates from ORCA-job mp2_opt
  C   -0.47729976954648      0.01802900009711     -0.01601210185245
  C   -1.21122806812527      1.19753273590882     -0.17697146106441
  C   -1.20475482524309     -1.16568868241559      0.16919764395143
  C   -2.59849875957304      1.13784236125054     -0.15623144439006
  H   -0.70140279788916      2.14166263994125     -0.33435030107327
  H   -0.67806581357801     -2.10228504990083      0.33212388502870
  C   -3.21709536487666     -0.09765598661702      0.01548998997011
  H   -3.19594004377245      2.03325013757868     -0.28052900273521
  H   -4.29942852175286     -0.17861613135420      0.02612216567550
  C   0.98152563039398      0.01705967273447     -0.01672755002533
  N   3.08974768439669     -0.57817313483910     -0.12157199292694
  H   3.95384695471795     -1.08569479717469     -0.23608618752409
  N   -2.53863842212789     -1.24203993420621      0.17781211054897
  C   1.83262410608784     -1.05952797045488     -0.24996737193203
  H   1.64203655072453     -2.08759723705151     -0.51410243527321
  N   3.14415308365222      0.72510256167139      0.18225478726066
  C   1.85535907340222      1.09196557804067      0.24765462014421
  H   1.61316430310948      2.11254723679110      0.50228964621741
