18
Coordinates from ORCA-job mp2_opt
  C   -0.47770001707352      0.01977897404554      0.00595814073123
  C   -1.20764847140463      1.20117324001909      0.17123820963413
  C   -1.20934543526161     -1.16234093498194     -0.17410899415654
  C   -2.59500671725222      1.14696827174239      0.15625139211230
  H   -0.69494852034156      2.14390965473443      0.33033045831992
  H   -0.68632782467556     -2.10082546258717     -0.33418449946922
  C   -3.21803716330742     -0.08664614616525     -0.01424558699337
  H   -3.18899347630226      2.04405194518405      0.28512723722228
  H   -4.30070514679739     -0.16398956188610     -0.02080312841247
  C   0.98111401199405      0.00284074474818     -0.00408617437323
  N   3.09458778260583      0.57678698021191     -0.12710361837642
  H   3.96297159331390      1.07493974218476     -0.24957866662395
  N   -2.54398939184083     -1.23298520192257     -0.17827259191440
  C   1.84112800227170      1.07071880697263     -0.24342683770946
  H   1.65877308458838      2.10090875745705     -0.50560319769473
  N   3.13796892069600     -0.72712271675004      0.17580464444465
  C   1.84635510053089     -1.08138197089419      0.25271666571451
  H   1.59612966825626     -2.09934812211277      0.50925954754478
