18
Coordinates from ORCA-job mp2_opt
  C   -0.47849869823578      0.02767043814253     -0.00386891368728
  C   -1.21294358646395      1.17899373331954     -0.30228294536719
  C   -1.19897048657106     -1.13502078539730      0.29966533139552
  C   -2.60036711046629      1.11842506675236     -0.27496031510791
  H   -0.69920899472796      2.09722578560636     -0.56790907581385
  H   -0.66359650094657     -2.04615479911280      0.55357264745753
  C   -3.21390098861307     -0.09330571895752      0.03287554958414
  H   -3.20190391443589      1.99044515218636     -0.50278581052631
  H   -4.29614139344732     -0.17579439608364      0.05192775414237
  C   0.98105547403571      0.01425573198815     -0.01602398893409
  N   3.09406071185874      0.53470519350066      0.24324019418506
  H   3.96415218944499      0.99131154989843      0.47069127729677
  N   -2.53329821966317     -1.21194701529039      0.31690919077554
  C   1.84145883165298      1.00481903105412      0.44453683595357
  H   1.65378388206837      1.96121352986411      0.90707775139900
  N   3.13367853416941     -0.68366114930739     -0.31299483901027
  C   1.84029446225427     -1.00690184795691     -0.46837860619127
  H   1.57880880808657     -1.95143250020666     -0.92141803755133
