20
Coordinates from ORCA-job opt
  C   -3.01396882000608      0.58900015726731     -0.75234564693544
  C   -1.62333240669836      0.56633671892797     -0.72471244361526
  C   -0.90144956470863      1.45758555692308      0.08211383719648
  C   -1.62367504138920      2.39052336124111      0.84003742342434
  C   -3.01439436443732      2.41340071224668      0.81338402286668
  C   -3.71693456358392      1.51335301386742      0.01620097185386
  H   -3.54729599774366     -0.11723624692777     -1.37841971966744
  H   -1.10628715039626     -0.18109387012084     -1.31330678382870
  H   -1.10596160983414      3.12409914951566      1.44499825047985
  H   -3.54793333035880      3.14488699058696      1.40957943017386
  H   -4.80037176134175      1.53242521014528     -0.00628530214524
  C   0.57619485251021      1.46305227208095      0.07686353378423
  C   1.33460217503292      2.21603021274730      0.98132411627492
  H   0.86171235905032      2.78832027631147      1.77215960678317
  C   1.33079639378964      0.77338746881364     -0.87983929321514
  H   0.85319649135747      0.19103045922038     -1.66030310094552
  C   3.26816763993773      1.54046584681170      0.01145183976102
  H   4.35248171013641      1.56644483101053     -0.01086693803094
  N   2.66547118116801      0.79451882311197     -0.91762691388205
  N   2.66898380751542      2.26247005621919      0.96159210966733
