20
Coordinates from ORCA-job opt
  C   -3.00231455807968      2.51462730679717     -0.60952494385058
  C   -1.60958464757525      2.51847933152768     -0.61019781133223
  C   -0.90338935694690      1.50072876659956      0.03827174405589
  C   -1.60603249241292      0.48040335965870      0.68655619642624
  C   -2.99876713043107      0.47918647618388      0.68555346515024
  C   -3.69829920310203      1.49563878265258      0.03793287628658
  H   -3.54321559008595      3.30698831135314     -1.11437268484901
  H   -1.06149355238826      3.30895403358535     -1.11246007121190
  H   -1.05518528498241     -0.30807750315496      1.18893722180675
  H   -3.53689974392576     -0.31514254174399      1.19026703006947
  H   -4.78216135903426      1.49366942305305      0.03780170642659
  C   0.57306889829781      1.50339508512752      0.03843425314062
  C   1.31524537407228      0.86983984240068     -0.95870879205151
  H   0.81481959745147      0.35100140073119     -1.77225051322298
  C   1.31271149524122      2.13967580276295      1.03572794439634
  H   0.81021020764212      2.65669678649218      1.84914751205840
  C   3.24741123606825      1.50828144392111      0.03872504662687
  H   4.33230850566764      1.51025919373471      0.03884569765986
  N   2.64950178957166      2.14957422872026      1.04759142171110
  N   2.65206681495204      0.86481946959724     -0.97027529929672
