20
Coordinates from ORCA-job opt
  C   -2.98622409428519      0.37186257457479     -0.40063986225989
  C   -1.59428522647451      0.39402614319529     -0.42266099021581
  C   -0.90122426395255      1.53123422883451      0.00546095625645
  C   -1.61863419730715      2.63655391996060      0.47525383335425
  C   -3.01060846674908      2.61251354301134      0.49447934346193
  C   -3.69591409560456      1.48069924027074      0.05672066540288
  H   -3.51631705481730     -0.51379500537096     -0.73214569498319
  H   -1.03678036802353     -0.47256066440621     -0.76336285752209
  H   -1.08049461622960      3.51802002939702      0.80885715010604
  H   -3.55987514462763      3.47662607383622      0.85071393183735
  H   -4.77953510801538      1.46209234769131      0.07376818232868
  C   0.57104530135249      1.54028458253958      0.01715788666262
  C   1.30087328759599      1.66052511465214      1.20095363521445
  H   0.78922488672693      1.77077166295937      2.15388345723746
  C   1.32432140030407      1.36833529050411     -1.14545384982688
  H   0.83222746078487      1.25981703042851     -2.10880853389917
  C   3.24519135352472      1.48367528379596      0.05061146537899
  H   4.32992433282695      1.46652752537506      0.06367441538297
  N   2.66042444632917      1.34146071973706     -1.14291061650486
  N   2.63665916664127      1.64032835901357      1.23044748258782
