20
Coordinates from ORCA-job mp2_opt
  C   -2.82136434128633      1.15457023947303      0.34388999929131
  C   -1.42988811854909      1.15884888100195      0.34120695448502
  C   -0.71602540028287      0.00581923141004     -0.00913923488829
  C   -1.42499640992058     -1.15486226708651     -0.34342371468022
  C   -2.81646811629842     -1.15652987766280     -0.34372617206370
  C   -3.51825873575324     -0.00258165102182      0.00061297343635
  H   -3.36145398107045      2.05193981988738      0.62321377155754
  H   -0.89241984040355      2.05223357391169      0.64079916966910
  H   -0.88462669374990     -2.04737663275257     -0.64012063113843
  H   -3.35291231877430     -2.05810211733289     -0.61646959704716
  H   -4.60205752151248     -0.00530435613470      0.00207881215130
  C   0.75355857376659      0.00607222677011      0.00838545380223
  C   1.50343222547381      1.10996948718141     -0.40748603265111
  H   1.01002737285907      2.00779405957759     -0.77004326740083
  C   1.49787165581708     -1.10747723478155      0.40770425520388
  H   1.00078936707974     -2.00605258325790      0.76308169867040
  C   3.43455304617349     -0.00301627714109      0.00074890638166
  H   4.51921092781159     -0.00565241513340      0.00094304002194
  N   2.83319345600226     -1.12522063405225      0.40850632656282
  N   2.83876985261759      1.12116852714427     -0.40979471136382
