20
Coordinates from ORCA-job opt
  C   -3.01532060643851      1.87699643813883     -1.10186191407370
  C   -1.62421296911924      1.88089626574177     -1.10149376457109
  C   -0.90110265464764      1.48058678585282      0.03118620159276
  C   -1.62265598773869      1.11256346513011      1.17597009852968
  C   -3.01379692754801      1.10764505562790      1.17613058094070
  C   -3.71742475029671      1.49021360716054      0.03695265124778
  H   -3.54992260867638      2.18043070567707     -1.99479461104901
  H   -1.10714988715871      2.16324979484231     -2.00998152399956
  H   -1.10333385877541      0.84402686947429      2.08741960765333
  H   -3.54703476251561      0.81629977539610      2.07389268502150
  H   -4.80127204439055      1.48847810817368      0.03707810597607
  C   0.57554283941616      1.52066053997118      0.04798295401742
  C   1.33122054893761      2.11515585549176     -0.96953558493688
  H   0.85459090312680      2.62971150280873     -1.79697734223581
  C   1.33418883212621      0.89656066592448      1.04566301285024
  H   0.85908572575676      0.35841075782556      1.85895452546213
  C   3.26893925020555      1.51855156803103      0.04339447687599
  H   4.35377723692234      1.52583678734501      0.04617239655752
  N   2.66938085437953      0.89832868752913      1.06266668227749
  N   2.66650286643448      2.12439576385770     -0.98281823813655
