20
Coordinates from ORCA-job opt
  C   -3.00627347243429      0.72746629120579      0.96925002873717
  C   -1.61377301293283      0.71415169295765      0.97005632843222
  C   -0.90208029202493      1.47261766486208      0.03506940575960
  C   -1.60010340380023      2.25921117912401     -0.88673034966338
  C   -2.99261595824133      2.26934586266344     -0.88638799054130
  C   -3.69714641113035      1.50404406592082      0.04099684964023
  H   -3.55134104341399      0.13726706849992      1.69718120469460
  H   -1.07062482786296      0.11877275562713      1.69686192357263
  H   -1.04655119043465      2.85128650908694     -1.60838780459343
  H   -3.52710177215954      2.87525990808514     -1.60924136979644
  H   -4.78101200551576      1.51402348646722      0.04133064182226
  C   0.57239702629856      1.48384969368718      0.05291446906733
  C   1.32829297546188      0.39240291744598     -0.37709171816567
  H   0.83813677002949     -0.51385889707251     -0.72380760581025
  C   1.29856966264533      2.60678784647780      0.45158631603394
  H   0.78439116199947      3.50251884832316      0.79089768663816
  C   3.24622283003692      1.52846990097380      0.02880000771015
  H   4.33105875751379      1.54491845397776      0.02381112891286
  N   2.63470796487601      2.64063592354821      0.44796353828108
  N   2.66484524108942      0.39982682813847     -0.38906969073175
