20
Coordinates from ORCA-job opt
  C   -2.99931505212813      1.20497725887356      1.21061970297071
  C   -1.60762803348481      1.20813821320742      1.21099739547479
  C   -0.89951025688404      1.49821776645805      0.03854807903799
  C   -1.61019419881900      1.78649802100016     -1.13280453222843
  C   -3.00187078112827      1.78410444036774     -1.13079610748366
  C   -3.69916966891830      1.49305255550288      0.04031328540252
  H   -3.53697739842073      0.97075400987471      2.12235507338721
  H   -1.06459625372397      0.95751316562979      2.11626124423987
  H   -1.06915887964988      2.03992730883054     -2.03848167756243
  H   -3.54154991590277      2.01655355218184     -2.04179078884424
  H   -4.78305441810689      1.49091022843080      0.04096417106222
  C   0.56966650354257      1.50268462309730      0.03803225191265
  C   1.31668497609315      0.95959396247404     -1.01044605274410
  H   0.82141715238780      0.49016944280304     -1.85650117550358
  C   1.31406226497554      2.05281560093587      1.08470848826837
  H   0.81639441428119      2.51915805761051      1.93106254823116
  C   3.24902292191216      1.51352587029503      0.03574575513725
  H   4.33385457440697      1.51758469195313      0.03499341076476
  N   2.64964685145583      2.06051310238286      1.09801372485797
  N   2.65227619811158      0.96230712809071     -1.02579579638105
