20
Coordinates from ORCA-job mp2_opt
  C   -2.82523775769918      1.17357536281895     -0.26717545879886
  C   -1.43396416293092      1.17679427047585     -0.26425854297495
  C   -0.71661386964742      0.00657200752160      0.01844308657275
  C   -1.42921027543116     -1.17384025095285      0.26797251098637
  C   -2.82045148800947     -1.17583152467867      0.26695987771533
  C   -3.52330638792363     -0.00264191669414     -0.00082133350695
  H   -3.36379721833047      2.08726938304185     -0.49101372315513
  H   -0.90239705769217      2.08856269080262     -0.51264560378987
  H   -0.89585292508087     -2.08634506540315      0.50907835150475
  H   -3.35567484968551     -2.09472899943245      0.47710501258486
  H   -4.60708971730765     -0.00548018097401     -0.00347946980506
  C   0.75422034450302      0.00708193194729     -0.01694498220073
  C   1.50725521162381      1.13724344456350      0.31771971249849
  H   1.01912945020435      2.06023212988735      0.61704750608769
  C   1.50204563666363     -1.13578937988872     -0.31715047080744
  H   1.01148807208273     -2.06258296916306     -0.59970123879112
  C   3.43947941403790     -0.00213526482794     -0.00276799076517
  H   4.52414843600966     -0.00423019700192     -0.00421407882925
  N   2.83714067911966     -1.15344162759029     -0.31554435836708
  N   2.84229246549369      1.14987215554818      0.31735619384136
