20
Coordinates from ORCA-job opt
  C   -3.00315785224153      2.19851588406966     -0.94074240627901
  C   -1.61171800829000      2.20360420978723     -0.93803585451825
  C   -0.89940153348452      1.50873416625485      0.04770064567521
  C   -1.61232078992208      0.79363023122126      1.01862666766932
  C   -3.00378609805995      0.78897094267392      1.01445951285321
  C   -3.70295100967389      1.49137884598877      0.03498476971217
  H   -3.54084139672231      2.75047841539123     -1.70326481092190
  H   -1.07602401138773      2.78186507303486     -1.68288122836463
  H   -1.07576698469759      0.21527171720308      1.76288588118592
  H   -3.54165197096962      0.22723453656041      1.76967499334104
  H   -4.78683397735980      1.48710087073106      0.03152722406546
  C   0.57093077639369      1.49330763629933      0.04081604969880
  C   1.31691953500665      1.56445490157115     -1.13927844017567
  H   0.82352458653397      1.58555346983484     -2.10701693013747
  C   1.32156662739082      1.44923812685769      1.21947348110337
  H   0.83081199577185      1.43431021254844      2.18875914374184
  C   3.25327320157263      1.51302328719668      0.03699969237033
  H   4.33813779710361      1.51699028707308      0.03501875715943
  N   2.65699263251456      1.44891533473557      1.23126550068812
  N   2.65229548052125      1.57642185096688     -1.15497364886728
