20
Coordinates from ORCA-job opt
  C   -2.99533862030059      0.31165044948207     -0.20309474588155
  C   -1.60252332499472      0.31624503859286     -0.20448790497136
  C   -0.90315416133911      1.50295711980198      0.03491749768532
  C   -1.61266408371325      2.68295904774203      0.27802861554741
  C   -3.00544440599460      2.67535215662795      0.27858113259173
  C   -3.69823411931412      1.49042032172458      0.03816851468401
  H   -3.53111747963513     -0.61221093921212     -0.38952536744284
  H   -1.05052041343651     -0.59924799572847     -0.39078387474472
  H   -1.06836036052865      3.60298123714699      0.46463983550093
  H   -3.54911312135193      3.59421002890349      0.46688421121674
  H   -4.78211611543693      1.48559511683770      0.03901574700497
  C   0.57362284755428      1.50855433846159      0.03773302707969
  C   1.31287018002076      1.31122691282781      1.20421650175367
  H   0.80993309621394      1.14884732713390      2.15405238984868
  C   1.31562130320572      1.70444432990832     -1.12739880141020
  H   0.81458951228669      1.86365749729103     -2.07877903943480
  C   3.24739375681261      1.51050766190700      0.04103300951373
  H   4.33236238930731      1.51204401139419      0.04255623151423
  N   2.65245580706632      1.70829660641584     -1.13940441204913
  N   2.64973831357791      1.31051073274126      1.21964643199348
