20
Coordinates from ORCA-job opt
  C   -3.00983925117249      0.78174086226448     -0.93282095079810
  C   -1.61929184413776      0.81504657558778     -0.96110789641973
  C   -0.90020542474596      1.54681108892822     -0.00639706359234
  C   -1.61298286494633      2.22163789714833      0.99390653126356
  C   -3.00365751102955      2.18844275133933      1.02151655774192
  C   -3.70725439228411      1.46825709031193      0.05872686253298
  H   -3.54814368126168      0.21953618895785     -1.68736455408410
  H   -1.09366669654070      0.30180812471010     -1.75817439471997
  H   -1.08104152659842      2.75324065858804      1.77432634724245
  H   -3.53679782451744      2.71491358827493      1.80496340300104
  H   -4.79053921533921      1.44096405203669      0.08184012785231
  C   0.57270905969942      1.54304069431164     -0.00708600219861
  C   1.32888444966864      2.54636349249562      0.60800156465442
  H   0.84814541142119      3.41125237772010      1.05526502011121
  C   1.31875733285212      0.49457411653415     -0.55584635714327
  H   0.82785026442382     -0.36049220001592     -1.01059370831364
  C   3.25790647562716      1.48575702261796      0.07089726302670
  H   4.34228091554818      1.46579093848269      0.09669888340217
  N   2.65353465134201      0.45966677065354     -0.53453666057969
  N   2.66335267199111      2.53064690905256      0.65378602702069
