20
Coordinates from ORCA-job mp2_opt
  C   -2.82960857077279      1.06479696960923     -0.53444693385444
  C   -1.43763801131516      1.07221703151301     -0.56031734610087
  C   -0.71750601929750     -0.00593498829153     -0.03545157754335
  C   -1.40781638445252     -1.08054835674370      0.53486992223637
  C   -2.79976056357506     -1.08376740761088      0.56319993721997
  C   -3.51242438453188     -0.01243362159235      0.02753506226111
  H   -3.38076580263872      1.89930598609768     -0.95257772487439
  H   -0.90170238635397      1.90615983801745     -1.00199953795501
  H   -0.84846201313803     -1.90624478102633      0.96274323526826
  H   -3.32742084650723     -1.91861972767446      1.01001487852488
  H   -4.59594597113047     -0.01632650304088      0.04934677859663
  C   0.75472677368067      0.01183224668246     -0.03426818974136
  C   1.51025399451499     -0.95599124548116     -0.69793899838740
  H   1.01977358821937     -1.73941077269195     -1.27030833160777
  C   1.48168787106108      0.96838178561803      0.67618116926779
  H   0.96728925110304      1.74251760255959      1.24013398939194
  C   3.42890641383020      0.00963916613895      0.02433918860202
  H   4.51345183541659      0.01154773599049      0.04438857012911
  N   2.81738128233055      0.98156666490609      0.70939054768458
  N   2.84642394355685     -0.96670762297973     -0.67929563911807
