20
Coordinates from ORCA-job opt
  C   -2.99371523806104      0.41934526941978     -0.50610829495691
  C   -1.60193740746310      0.43040355891800     -0.51653604602608
  C   -0.89990959978819      1.51377224743958      0.02435544612783
  C   -1.61301079858280      2.58087702422019      0.58283676374340
  C   -3.00479598238732      2.56841518595858      0.59061576900943
  C   -3.69725161259427      1.48814426166555      0.04645637157189
  H   -3.52862669979621     -0.42700299528087     -0.92176079419325
  H   -1.05218133213256     -0.41129831395223     -0.92504000802525
  H   -1.07231199758685      3.42985326924884      0.98840682148519
  H   -3.54849872388828      3.40388202601623      1.01675738701623
  H   -4.78107607358596      1.47875736567504      0.05391189301495
  C   0.56951456774236      1.51897983395632      0.02798185313401
  C   1.30922338422791      1.82745795788515      1.17191129515747
  H   0.80659403536220      2.06872220621339      2.10516796223177
  C   1.31792675870656      1.19139899257379     -1.10494096481924
  H   0.82272282429484      0.94911334867636     -2.04189776149918
  C   3.24691487920474      1.49996668728321      0.04345005202750
  H   4.33173787499236      1.49452339818638      0.04913230528805
  N   2.65372941074348      1.17673219011360     -1.11011950510422
  N   2.64495273059213      1.82695748578309      1.19142045481639
