20
Coordinates from ORCA-job opt
  C   -3.01513020648703      1.45073470276913      1.24215481496057
  C   -1.62445649227431      1.41649977093734      1.24117532899747
  C   -0.90138406522836      1.43900921493632      0.03989900391146
  C   -1.62247340963648      1.52424610930219     -1.15976421321475
  C   -3.01322879451752      1.55791154330116     -1.15961051116438
  C   -3.71694934685184      1.52236230858733      0.04149920158652
  H   -3.54938889392311      1.42325830428275      2.18501731488716
  H   -1.10827549443934      1.33455599143496      2.18947799389983
  H   -1.10384630687404      1.58583803778018     -2.10811787644934
  H   -3.54588239123348      1.62337291214372     -2.10151307114882
  H   -4.80041718816774      1.55070592501132      0.04188568211346
  C   0.57624614337370      1.44813873716751      0.04100633207016
  C   1.33598720584119      1.30453088628630     -1.12620050224337
  H   0.86425809226478      1.11880175169176     -2.08512838632637
  C   1.32942076885708      1.67483101449910      1.19931369348094
  H   0.85064926728702      1.84509553804846      2.15751866460148
  C   3.26810945945990      1.55171750432984      0.03203508055782
  H   4.35238865965659      1.58696744719930      0.02945561953399
  N   2.66403765583684      1.71828440938342      1.21111129565996
  N   2.67033733705615      1.35213989090788     -1.14521446571381
