20
Coordinates from ORCA-job mp2_opt
  C   -2.81704529621393      1.20608874051603     -0.00161243271108
  C   -1.42427972086664      1.20746897732012     -0.00166913198809
  C   -0.71957947691086     -0.00006304636249     -0.00005758803629
  C   -1.42438184043969     -1.20753740167934      0.00161128053546
  C   -2.81714262935647     -1.20602757489986      0.00160402704694
  C   -3.51551722705106      0.00006488834977      0.00000635847955
  H   -3.35605892721121      2.14662783317415     -0.00281491177629
  H   -0.87664187337584      2.14415947832738     -0.00292999592096
  H   -0.87682719920643     -2.14427641582759      0.00287443222329
  H   -3.35626505829519     -2.14650336526100      0.00284192698278
  H   -4.59931085678707      0.00009481038422      0.00002625210963
  C   0.75689271647266     -0.00009477448112     -0.00001891783219
  C   1.49756620899143      0.00167880585289      1.18213054331252
  H   0.99523408181890      0.00307117686783      2.14588678285236
  C   1.49766404774991     -0.00175682851021     -1.18210361486973
  H   0.99543268240506     -0.00315597788226     -2.14591153924927
  C   3.43114891735627      0.00005228180740      0.00009542874841
  H   4.51600875072092      0.00010593332316      0.00013808860511
  N   2.83426098658021     -0.00169323340103     -1.19604260713991
  N   2.83415971361905      0.00174769238193      1.19618861862776
