20
Coordinates from ORCA-job mp2_opt
  C   -2.82894722642636      1.18936081540761      0.18260358182559
  C   -1.43779294669232      1.18965369397037      0.18024347046225
  C   -0.71783337025847      0.00394097017795     -0.02447394044209
  C   -1.43647974748913     -1.18922330571127     -0.18386648716009
  C   -2.82758744510240     -1.18971719097998     -0.18208112371077
  C   -3.53014421718451     -0.00058663245246      0.00091942069922
  H   -3.36442828520362      2.11821203948603      0.34223669957722
  H   -0.91290012507650      2.11907307661290      0.36598661454420
  H   -0.91269246526252     -2.12132867924588     -0.35812739444690
  H   -3.36241636255072     -2.12202987029265     -0.32257944535056
  H   -4.61391537270624     -0.00178909902252      0.00430068624351
  C   0.75580022480584      0.00439924912965      0.02182772876020
  C   1.51102118870198      1.15737705643913     -0.22185618438819
  H   1.02878016448163      2.10312188393920     -0.44763913686578
  C   1.50943843616547     -1.15818873984043      0.21856269096153
  H   1.02785553964035     -2.10988837967215      0.41840803031685
  C   3.44609546663386      0.00032180150056      0.00508334834984
  H   4.53078502811460      0.00025717286028      0.00869280639281
  N   2.84447854640305     -1.17354603734892      0.21702461891380
  N   2.84591296900601      1.17262517504258     -0.21923498468264
