20
Coordinates from ORCA-job mp2_opt
  C   -2.82703574854720      1.18197200184401      0.22602925946694
  C   -1.43584168431684      1.18379380697103      0.22333739208378
  C   -0.71716126136874      0.00548906987589     -0.02193510385630
  C   -1.43260798906575     -1.18213348276916     -0.22719388011877
  C   -2.82376186419381     -1.18351100178766     -0.22558143585532
  C   -3.52651452330839     -0.00179673151359      0.00094137783152
  H   -3.36418521931597      2.10349528710847      0.41903703499117
  H   -0.90746376379132      2.10449885612038      0.44216036714464
  H   -0.90387909201796     -2.10465111969970     -0.43656361950450
  H   -3.35873669019711     -2.10964010568946     -0.40186517481493
  H   -4.61029122649234     -0.00390744259419      0.00409462776757
  C   0.75489519050248      0.00600965149603      0.01992258387040
  C   1.50901546719421      1.14815786884610     -0.27073280129639
  H   1.02364551428685      2.08277226086294     -0.53501741441498
  C   1.50553284786519     -1.14786026140054      0.26886956388826
  H   1.01938239048351     -2.08772129361136      0.51147805564002
  C   3.44261444851477     -0.00084000163565      0.00393667943225
  H   4.52729463575049     -0.00189709405625      0.00645595591647
  N   2.84058671024891     -1.16440644490163      0.26698378282264
  N   2.84395085776901      1.16218917653435     -0.26910125099448
