20
Coordinates from ORCA-job opt
  C   -3.00299897604730      2.27018876974101     -0.88551005951181
  C   -1.61124777045057      2.27477658673470     -0.88774705288244
  C   -0.89967595776570      1.49874333014382      0.03482451540855
  C   -1.60506808075274      0.72134291621350      0.96097488082640
  C   -2.99681797107211      0.71706009482898      0.96044872182328
  C   -3.69816853192334      1.49133115451401      0.03786704733686
  H   -3.54447376101365      2.88032127976912     -1.59947728318953
  H   -1.06982387454618      2.90016139974825     -1.59001549788571
  H   -1.05887130698520      0.10038831930074      1.66345141089797
  H   -3.53347928290203      0.10461884070263      1.67607166374590
  H   -4.78205504968575      1.48798833491472      0.03868097555105
  C   0.56953451182834      1.50774935872063      0.03714605193482
  C   1.31661689739562      1.42166485807524     -1.14018117919269
  H   0.82058661597407      1.32804680577678     -2.10292197294110
  C   1.31227228315787      1.59296682250479      1.21726879426766
  H   0.81271574381394      1.68165905103557      2.17863350061787
  C   3.24793134764176      1.51280405605148      0.04164900523076
  H   4.33277344547053      1.51574477050046      0.04343257723411
  N   2.64793801004850      1.59340697621978      1.23349371981516
  N   2.65230970781393      1.42803627450377     -1.15208981908710
