20
Coordinates from ORCA-job opt
  C   -2.99427723596834      2.56358961598793     -0.52469294029684
  C   -1.60171271388018      2.56758740874449     -0.50675394002730
  C   -0.90272804888273      1.50121835137549      0.06712240405464
  C   -1.61283258854414      0.42522067853875      0.60864709686359
  C   -3.00540289162146      0.42439160614355      0.59046992103182
  C   -3.69762690268202      1.49301476394987      0.02405692660452
  H   -3.52952700036720      3.39378530727997     -0.97147218534445
  H   -1.04931878448043      3.39574948020147     -0.93881421772523
  H   -1.06897515225298     -0.40404862062036      1.04929560831629
  H   -3.54937682990943     -0.41060876596699      1.01730562994452
  H   -4.78142421306132      1.49094247493273      0.00921044357330
  C   0.57307287296658      1.49381676570143      0.06331613170014
  C   1.30618528318945      0.73801270918414     -0.85213350153708
  H   0.79786049403265      0.11531821901279     -1.58394543963790
  C   1.32145148050692      2.27338036714890      0.94594871046887
  H   0.82567538134345      2.89768414069210      1.68492881436364
  C   3.24671283247153      1.51700907685917      0.02108841020595
  H   4.33156804116789      1.52341154373907      0.00630410880379
  N   2.65810330500045      2.29172637507780      0.93741247648708
  N   2.64257267097135      0.73779550201769     -0.88129545784934
