20
Coordinates from ORCA-job opt
  C   -2.99774960124543      0.31011138860087      0.26668812545805
  C   -1.60630911504661      0.31540307285235      0.26523202442765
  C   -0.89936700064745      1.50055524642916      0.02529965679247
  C   -1.61774710994460      2.68298878361761     -0.19404276495385
  C   -3.00920820736482      2.67638505848715     -0.19181877434938
  C   -3.70295938273255      1.49009569631806      0.03840841272959
  H   -3.53118541270362     -0.61712578812102      0.44242705516211
  H   -1.06627923234200     -0.61337719507896      0.41315156469070
  H   -1.08557502073378      3.61694209513275     -0.33837585678638
  H   -3.55134361533142      3.60021712058117     -0.35861664278240
  H   -4.78684303519690      1.48527778154047      0.04074272790378
  C   0.57086503782315      1.51463975266441      0.04515800301006
  C   1.31892819058920      0.65784983050328      0.85787122319405
  H   0.82704586463654     -0.02330375718028      1.54669643221172
  C   1.31957217015026      2.35837808126932     -0.78078256647294
  H   0.82738056477157      3.03103620835354     -1.47781461861341
  C   3.25328808459217      1.51141018558944      0.04213385486601
  H   4.33815931344940      1.51274194589691      0.04399939789092
  N   2.65495639339178      2.37354576153724     -0.78530131903423
  N   2.65437111388509      0.64522573100651      0.86494406465549
