20
Coordinates from ORCA-job mp2_opt
  C   -2.81606349397330      1.14218072484319     -0.38214234165766
  C   -1.42450727411665      1.14497217301319     -0.37222973769399
  C   -0.71600326561512      0.00070383523547      0.01434197142175
  C   -1.42719307605945     -1.14676493670457      0.38620476140595
  C   -2.81874505960702     -1.14652082616453      0.37918432649306
  C   -3.51622012494913     -0.00272347677215     -0.00560910576951
  H   -3.35378103752559      2.03129661660694     -0.69088240402773
  H   -0.88183076886639      2.02799340304083     -0.69295873827124
  H   -0.88680583288194     -2.02974209682584      0.71100098611846
  H   -3.35861626054602     -2.03746848527350      0.67873951764331
  H   -4.60000063805315     -0.00375177325277     -0.01253760278986
  C   0.75339799800827     -0.00097804121039      0.01303486721561
  C   1.49701211659275     -1.09037493466041     -0.44827943045409
  H   0.99770177851164     -1.97326299787428     -0.83882995705603
  C   1.50111791821758      1.09296958097412      0.45658376499325
  H   1.00548672590024      1.97652088456170      0.85035341371412
  C   3.43259988710622      0.00334019433348     -0.00934683876699
  H   4.51724146536686      0.00439887822894     -0.01682876328892
  N   2.83655025167102      1.10867771250446      0.44949715603651
  N   2.83243469081919     -1.10274843460386     -0.46096584526600
