20
Coordinates from ORCA-job mp2_opt
  C   -2.80303718126644      1.08300133534237      0.55317999482464
  C   -1.41088383471023      1.06909034643603      0.55300648551374
  C   -0.71753977778458     -0.01932688883984      0.01335737409059
  C   -1.43495100866488     -1.08252149542270     -0.54464621133200
  C   -2.82709555728964     -1.06437709045215     -0.54694244278770
  C   -3.51287797165632      0.01726376057413      0.00280565492551
  H   -3.33322050580579      1.92530351687226      0.98268005630778
  H   -0.85393945333261      1.89376398915511      0.98597796800955
  H   -0.89652818738795     -1.91668934191663     -0.98283850903754
  H   -3.37597556079661     -1.89053683408551     -0.98422321195307
  H   -4.59654537690209      0.03028395336568      0.00111523890269
  C   0.75466425710947     -0.02147319772077     -0.00975955882072
  C   1.48447166948465      0.95378808022861     -0.69123474635967
  H   0.97243667259890      1.72960468065027     -1.25503215074255
  C   1.50772000567351     -0.96766257872619      0.68707694373268
  H   1.01489648030348     -1.74701739024182      1.26295693428777
  C   3.42925371101537      0.01239455610165     -0.00766446599752
  H   4.51392459865174      0.02355088797590     -0.01050527627823
  N   2.84403652136034     -0.96524034284837      0.69189301623300
  N   2.82038149939970      0.98018805355198     -0.70088709351896
