20
Coordinates from ORCA-job opt
  C   -2.99735771564660      0.54386963806704      0.78068590908056
  C   -1.60575348147293      0.54884990024140      0.78155129279004
  C   -0.89934324116517      1.50448380895797      0.04087059842136
  C   -1.61357808209186      2.44976424287437     -0.70558908702331
  C   -3.00519568632880      2.44248306247831     -0.70613819644628
  C   -3.70001890099884      1.49002837208027      0.03689472596796
  H   -3.53297832541514     -0.19522407137079      1.36555620309699
  H   -1.06269020243219     -0.17138341865730      1.38427844561539
  H   -1.07617347128532      3.17378227910292     -1.30889850466732
  H   -3.54677978926861      3.17520814843221     -1.29352444447932
  H   -4.78391537231468      1.48494480089545      0.03610117667068
  C   0.57014758818165      1.50654775983870      0.03445473955654
  C   1.31863935198148      0.32650574464705      0.02397386401794
  H   0.82508846294401     -0.64109985843567     -0.01269151000515
  C   1.31421687202362      2.68927068546935      0.05364967246908
  H   0.81681993930610      3.65484802155980      0.09251724054741
  C   3.25002489599539      1.51160063427948      0.04029259821511
  H   4.33490429649735      1.51360074828588      0.04136995910735
  N   2.64974645193484      2.70575833833121      0.05044635942394
  N   2.65419640955572      0.31516116292235      0.03019895764105
