20
Coordinates from ORCA-job mp2_opt
  C   -2.81405348588595      1.17522413347741      0.28458906226642
  C   -1.42333570923314      1.17621124679369      0.24321985672712
  C   -0.71684520638418      0.00439606707123     -0.05885837733650
  C   -1.43887531822377     -1.17358105739356     -0.29277488628491
  C   -2.82950158137581     -1.17328232608278     -0.25324877231673
  C   -3.52192023846575      0.00092322824059      0.03601743602615
  H   -3.34428367234348      2.08976111305640      0.52434676471855
  H   -0.88411903308020      2.08673914064206      0.47867328490241
  H   -0.91312549411121     -2.08641105041388     -0.54964931663922
  H   -3.37230257106058     -2.09064518785073     -0.45020391631358
  H   -4.60519844507541      0.00046848106317      0.06931963708531
  C   0.75440389277407     -0.00470284191735     -0.05568643947601
  C   1.49406977312792     -1.13622287586289      0.30277846765347
  H   0.99557910846447     -2.05752166576816      0.58955869284652
  C   1.51387139654266      1.13541907167670     -0.33698229291547
  H   1.03335809835442      2.06248019682046     -0.63599115214737
  C   3.43797095134663     -0.00120940509696      0.03899834316478
  H   4.52219116933145     -0.00188749500938      0.07030746146150
  N   2.84827369026368      1.15086925902525     -0.29461282580236
  N   2.82851367503418     -1.15102003247125      0.34324297237991
