20
Coordinates from ORCA-job mp2_opt
  C   -2.81340038740174      1.16556805812576     -0.31947023448732
  C   -1.42235245234281      1.16697192701806     -0.28745716239323
  C   -0.71636565930242      0.00361373882428      0.04531899162876
  C   -1.43567458388697     -1.16538115435676      0.32582835324302
  C   -2.82670627137462     -1.16475477127957      0.29644122073529
  C   -3.51975762589730      0.00040077988068     -0.02675958997975
  H   -3.34545408148212      2.07207917656260     -0.58435851284720
  H   -0.88071002179859      2.06806329664755     -0.55328155675973
  H   -0.90534721360503     -2.06857855945581      0.60741036017400
  H   -3.36949411296640     -2.07384313966492      0.52865829141247
  H   -4.60326339585536     -0.00003595025079     -0.05192490266046
  C   0.75389471938241     -0.00419130892600      0.04275500379067
  C   1.49370961157673     -1.12288446865224     -0.35215541024698
  H   0.99362772357309     -2.03176278524133     -0.67485648579993
  C   1.51033825973985      1.12255181071611      0.37867440545962
  H   1.02510423937831      2.03609672733995      0.71096348513697
  C   3.43586519549352     -0.00016598781030     -0.03002012621007
  H   4.52025999089730     -0.00036592670438     -0.05419097309468
  N   2.84516285128698      1.13814569721383      0.34705337805917
  N   2.82850021458518     -1.13693815998672     -0.38434153516062
