20
Coordinates from ORCA-job mp2_opt
  C   -2.82702328661950      1.18198955999112     -0.22607203959271
  C   -1.43581993439687      1.18379519123831     -0.22336640695698
  C   -0.71715851658842      0.00548196843493      0.02192081929033
  C   -1.43262167419333     -1.18213471051356      0.22717839705058
  C   -2.82377842038735     -1.18348397254109      0.22556166359427
  C   -3.52652112319794     -0.00176326372834     -0.00097691408512
  H   -3.36414324854642      2.10352873570041     -0.41908866688233
  H   -0.90743810928954      2.10449631336460     -0.44219336850546
  H   -0.90390412231094     -2.10465913874283      0.43654683343156
  H   -3.35877821902049     -2.10959866546340      0.40184527115447
  H   -4.61029813742710     -0.00388618467503     -0.00413251774166
  C   0.75489892458760      0.00599446342403     -0.01992634577502
  C   1.50901464047894      1.14814411454323      0.27073002661257
  H   1.02364706848260      2.08275921250712      0.53501444403063
  C   1.50553546277304     -1.14787556459665     -0.26887136142782
  H   1.01938297393028     -2.08773487645944     -0.51148224587749
  C   3.44261548297627     -0.00085115176956     -0.00393974648925
  H   4.52729592166315     -0.00190669416099     -0.00645594373225
  N   2.84058970736967     -1.16442132435607     -0.26698405993590
  N   2.84395060971636      1.16217598780323      0.26910016183757
