20
Coordinates from ORCA-job opt
  C   -3.01252540979232      1.39274661217677      1.24025632706213
  C   -1.62198134574758      1.35180320415940      1.23918018141465
  C   -0.90048569001261      1.42923183875762      0.03974917540558
  C   -1.61639857251397      1.57959927348944     -1.15610619755709
  C   -3.00708039359664      1.61970179449959     -1.15525993642279
  C   -3.71132170752194      1.52723804322144      0.04285738455712
  H   -3.54940610725402      1.31973491730567      2.17919801087886
  H   -1.10105902027535      1.21528450568889      2.17936783253390
  H   -1.08993179053456      1.69331422130604     -2.09601240143901
  H   -3.53946244758381      1.73753489997494     -2.09221461891264
  H   -4.79465709576197      1.56096024885335      0.04355800338007
  C   0.57445195475481      1.43916147019448      0.04314097185227
  C   1.33427682601919      1.20625960670967     -1.10872754051054
  H   0.85971425620784      0.93577033261624     -2.04666552184735
  C   1.32101922993084      1.76683446498614      1.18062603234411
  H   0.83326691621999      2.01927614441039      2.11667015942725
  C   3.26188843480470      1.55795032053084      0.02946014564770
  H   4.34597769459294      1.59874577470474      0.02571237650787
  N   2.65540529944532      1.81716160277349      1.19084885217446
  N   2.66830896861916      1.26069172364087     -1.12963823649655
