20
Coordinates from ORCA-job opt
  C   -2.99712633257635      1.18191930636547      1.20465797586862
  C   -1.60540319810769      1.19158849247388      1.20515752804671
  C   -0.89970746045130      1.50860997718460      0.03845634519410
  C   -1.61093632526046      1.81239897013022     -1.12840998010140
  C   -3.00266318208741      1.80362446248804     -1.12627571131104
  C   -3.69814601894740      1.48828654310960      0.03965054465202
  H   -3.53397897930391      0.92785173972831      2.11154429351368
  H   -1.05929420109935      0.92852995557681      2.10513378430523
  H   -1.06943528773210      2.08084698475590     -2.02959005538376
  H   -3.54392246221956      2.04893980446147     -2.03295454220989
  H   -4.78201235632994      1.48091122667531      0.04026087637294
  C   0.56952325882592      1.51209095818797      0.03609378977389
  C   1.31398670393642      0.93179357510628     -0.99378181534630
  H   0.81582064566499      0.44072310796033     -1.82584838182414
  C   1.31488011388648      2.08643877006433      1.06867502000447
  H   0.81747147080859      2.57632628852201      1.90189468347944
  C   3.24793188690737      1.50721775910108      0.03771709241243
  H   4.33277830894317      1.50606182240802      0.03789234207081
  N   2.65056490086544      2.08801478525850      1.08309035365720
  N   2.64967051427709      0.92682347044188     -1.00736514317500
