20
Coordinates from ORCA-job mp2_opt
  C   -2.83184015493748      1.19904948108134     -0.08922404624091
  C   -1.44132109278306      1.19900584053241     -0.05157578662748
  C   -0.72003764750456      0.00090173785948      0.05612526482069
  C   -1.44494618610017     -1.19897096062636      0.09973197402438
  C   -2.83548520250136     -1.19985007743710      0.06288946043000
  C   -3.53697721175695     -0.00055620926646     -0.03293028411066
  H   -3.36341759309304      2.14008928711840     -0.17218988894789
  H   -0.92388707326923      2.14678438146806     -0.12499791173714
  H   -0.93124137903838     -2.14677682857202      0.19700694394432
  H   -3.36991538744317     -2.14192155705732      0.10619946784414
  H   -4.62029701461228     -0.00087634411675     -0.06361073289588
  C   0.75849712578801     -0.00088726219472      0.05243277764807
  C   1.51352762426476     -1.17272945716198     -0.08084180517576
  H   1.03738548321298     -2.14205892952440     -0.17654532370354
  C   1.51882535516679      1.17340309388499      0.11226019482581
  H   1.04820895918024      2.14432210555684      0.21935305023890
  C   3.45239964767227      0.00041664382610     -0.03690910230583
  H   4.53673747044904      0.00051980024006     -0.06687086541261
  N   2.85320199570338      1.18878849351619      0.07120378942919
  N   2.84807228160222     -1.18754923912677     -0.11739417604780
