20
Coordinates from ORCA-job mp2_opt
  C   -2.82343074995224      1.16434188991133      0.30625750690182
  C   -1.43206004312704      1.16849704889205      0.30331404054748
  C   -0.71623792763211      0.00674152653781     -0.01413139767665
  C   -1.42659664408793     -1.16472668893485     -0.30656562276383
  C   -2.81796137553679     -1.16686420160139     -0.30625953759614
  C   -3.52056481716975     -0.00302874871018      0.00062776580234
  H   -3.36304089830029      2.06993278202127      0.55867534246210
  H   -0.89753259554384      2.07121676870351      0.57831665667759
  H   -0.88929628999132     -2.06717307414685     -0.57655857312543
  H   -3.35361344395923     -2.07759938166403     -0.54841654277419
  H   -4.60435644786257     -0.00613146508545      0.00271228284292
  C   0.75379505117453      0.00716974331635      0.01294644406531
  C   1.50546842419524      1.12460603248439     -0.36307964715839
  H   1.01471290713599      2.03541665598763     -0.69479854457417
  C   1.49944859827476     -1.12229817955372      0.36324408255258
  H   1.00515409276417     -2.03530482227226      0.68306927126060
  C   3.43679488582110     -0.00291087833839      0.00180068147307
  H   4.52145407863463     -0.00560236796142      0.00253010220812
  N   2.83463820097007     -1.14040775835809      0.36269134973893
  N   2.84065099419263      1.13619611877230     -0.36405666086407
