20
Coordinates from ORCA-job opt
  C   -3.00692251560151      0.50087968373063     -0.64345624108358
  C   -1.61592913516527      0.48152212562454     -0.61969707565645
  C   -0.89959336077960      1.46417693510242      0.07620810826738
  C   -1.61144907769538      2.47946886117466      0.72849062721256
  C   -3.00253291710074      2.49799438353230      0.70416599508117
  C   -3.70465576913328      1.50913818972655      0.01831299891976
  H   -3.54558084182840     -0.27382609604402     -1.17718210410888
  H   -1.08527905803003     -0.32589328356079     -1.11188260924526
  H   -1.07646420618734      3.27634409790920      1.23270744579265
  H   -3.53752371483951      3.29312068486960      1.21087982363459
  H   -4.78824475166824      1.52495692868826     -0.00154653323035
  C   0.57187167664795      1.46692365884505      0.06907898200699
  C   1.32714353775843      2.03063182867369      1.10217137160336
  H   0.84360148678016      2.43729406569239      1.98578262115058
  C   1.31522545494162      0.96221441382147     -1.00252876521967
  H   0.82021813923000      0.54682338178078     -1.87555673841975
  C   3.25488206255880      1.53867816268240      0.01765129178275
  H   4.33932042546370      1.56299656442079     -0.00083210026361
  N   2.65011330973825      0.98200483885181     -1.03577128832068
  N   2.66180125491039      2.07355057447825      1.08900319009645
