20
Coordinates from ORCA-job mp2_opt
  C   -2.81337174017020      1.16561643107445      0.31953813820125
  C   -1.42232450148633      1.16699150569300      0.28751392600883
  C   -0.71636574914855      0.00362196158075     -0.04528373519543
  C   -1.43570050151645     -1.16535464631362     -0.32580242341514
  C   -2.82673133842286     -1.16469973427444     -0.29640232850147
  C   -3.51975344572189      0.00046501248497      0.02682343668521
  H   -3.34540921664304      2.07213030150276      0.58444820241172
  H   -0.88065319696476      2.06806286031755      0.55334547742602
  H   -0.90538802024553     -2.06855572326897     -0.60739914778706
  H   -3.36954338715732     -2.07377084937050     -0.52862909431677
  H   -4.60325886185811      0.00005317057716      0.05199581497952
  C   0.75389580533823     -0.00421057061535     -0.04274811160442
  C   1.49369815543250     -1.12292688761676      0.35212069982022
  H   0.99360630318632     -2.03180364976488      0.67480977881203
  C   1.51035308060474      1.12252704852378     -0.37865482631065
  H   1.02512180334495      2.03608485012938     -0.71091333907787
  C   3.43586720297488     -0.00023301326874      0.02997758320868
  H   4.52026175281569     -0.00045334738549      0.05413618954415
  N   2.84517765080784      1.13810057586837     -0.34705555879132
  N   2.82848920482988     -1.13700429587341      0.38427931790249
