20
Coordinates from ORCA-job opt
  C   -2.99617858946117      0.43202119466022     -0.53047115247623
  C   -1.60444465973632      0.43844039787741     -0.53586144797448
  C   -0.89969905574892      1.50624433543962      0.03231183177247
  C   -1.61188294992482      2.56493327111265      0.60822636172749
  C   -3.00361478353016      2.55720843849227      0.61116314939919
  C   -3.69815031826537      1.49112364261006      0.04229800143303
  H   -3.53229871536047     -0.40322033390811     -0.96653405185470
  H   -1.05763258805547     -0.39777908834735     -0.95909571193218
  H   -1.07108921191655      3.40584488480402      1.02991940573489
  H   -3.54561125867210      3.38617266066591      1.05191843605494
  H   -4.78202219864576      1.48550426388869      0.04570419217543
  C   0.56953213571980      1.51049407662598      0.03356700806058
  C   1.31224862776121      1.86410452657974      1.16270625673444
  H   0.81262598347262      2.13451178743071      2.08948182605823
  C   1.31662372425888      1.15090891170265     -1.09079586554266
  H   0.82065445958833      0.87874592372875     -2.01902202477746
  C   3.24792942746312      1.50614748546485      0.04010566607714
  H   4.33277374274486      1.50531903672767      0.04247914158118
  N   2.65232692633844      1.14157810843908     -1.09977086229058
  N   2.64790830196984      1.87069747600517      1.17767084003928
