20
Coordinates from ORCA-job mp2_opt
  C   -2.83128498658468      1.19522328653396     -0.13478948532296
  C   -1.44018055615207      1.19443316531273     -0.13315233597618
  C   -0.71864475085424      0.00214718514339      0.02453018254624
  C   -1.44031364683360     -1.19503829424869      0.13558440728760
  C   -2.83134310230878     -1.19497252477038      0.13447545980429
  C   -3.53405377799647      0.00017640013921     -0.00050735385954
  H   -3.36530373751696      2.13069048946262     -0.25608431553800
  H   -0.91937643148374      2.13263135416295     -0.27920729037875
  H   -0.92127986881826     -2.13599200628939      0.26896644273099
  H   -3.36568761111230     -2.13259102385934      0.23612417273891
  H   -4.61781270225871     -0.00016445969839     -0.00341508450509
  C   0.75691297528316      0.00257377367672     -0.02159471484755
  C   1.51333759738557      1.16539269839270      0.16827872666968
  H   1.03462612174472      2.12212788078606      0.34817699477738
  C   1.51347429579675     -1.16664727284143     -0.16355276210830
  H   1.03643394771258     -2.12891966077850     -0.31535817770066
  C   3.44983068616247      0.00126291351845     -0.00586338330895
  H   4.53452367658497      0.00196458675582     -0.01040238137785
  N   2.84851894267690     -1.18105565753545     -0.16260095102441
  N   2.84824092857271      1.18151716613695      0.16477984939315
