20
Coordinates from ORCA-job mp2_opt
  C   -2.80953992519181      1.11058399994945     -0.48199225599155
  C   -1.41694286855650      1.10119072445698     -0.48644701488456
  C   -0.71964718408121     -0.01321545203400     -0.01026303795739
  C   -1.43128639040529     -1.11249630916204      0.47958440225714
  C   -2.82390218458400     -1.10052938171461      0.48294782768944
  C   -3.51472486266578      0.01032987526197      0.00226665685574
  H   -3.34337277961032      1.97723711345372     -0.85481418451636
  H   -0.86323191600956      1.95596059240426     -0.86099332143417
  H   -0.88874289536998     -1.97398976533119      0.85505734459483
  H   -3.36893128008712     -1.95706031005577      0.86287848555552
  H   -4.59843777418153      0.01894606824887      0.00587107759654
  C   0.75670383621275     -0.01622148858913      0.00008156825682
  C   1.48972294354111      0.58442640243721      1.02385876922724
  H   0.98098037165734      1.06169909052066      1.85745310393801
  C   1.50485706838179     -0.59411727274671     -1.02577885511823
  H   1.00861530511922     -1.07290166877278     -1.86599363651678
  C   3.43063035974631      0.00930906607780      0.00513888490511
  H   4.51535778625322      0.01738079129487      0.00857327338262
  N   2.84153159566799     -0.59298820134774     -1.03268977134928
  N   2.82609779416336      0.60474012564818      1.03813468350932
