20
Coordinates from ORCA-job opt
  C   -3.00676912387243      0.46181925746344      0.65591510429156
  C   -1.61559291643630      0.46724030822452      0.65788847894508
  C   -0.90029497948500      1.51235513373469      0.05724971620149
  C   -1.62291166216577      2.53151165051288     -0.57888768104002
  C   -3.01413838741185      2.52663671229546     -0.58017734625572
  C   -3.71211622613047      1.49142956104584      0.03722767795150
  H   -3.53928035500573     -0.34994189410236      1.13828945585154
  H   -1.08911572875097     -0.32845979618020      1.17122044748430
  H   -1.10013403187966      3.32445880108274     -1.10039322913540
  H   -3.55204804562992      3.32559070653663     -1.07770002095582
  H   -4.79597014953052      1.48607506513913      0.03481717545696
  C   0.57372368439636      1.50156562146980      0.01888198455668
  C   1.33036577683731      0.35033482966598      0.26373999186795
  H   0.85152102952010     -0.60953400934220      0.42924619355407
  C   1.32519226596341      2.66481906613531     -0.18340208479343
  H   0.84025895102977      3.62555775374781     -0.32523131579571
  C   3.26320373967551      1.51159222146171      0.03491111718484
  H   4.34807082140586      1.51345355984509      0.03218150415297
  N   2.66033025890347      2.68175576005703     -0.19184254217640
  N   2.66570707856682      0.34073869120669      0.27206737265355
