20
Coordinates from ORCA-job opt
  C   -3.01155474931146      0.43329156713151      0.60318964150499
  C   -1.62045088215707      0.43797198627447      0.60450375616894
  C   -0.90121780160461      1.50966573186775      0.05651550347469
  C   -1.62649617687953      2.55864328419150     -0.52677881306093
  C   -3.01764070108036      2.55506735798229     -0.52778735380585
  C   -3.71747211158241      1.49191973557347      0.03712422235233
  H   -3.54314279571584     -0.40256153651489      1.04360178600518
  H   -1.10054455646410     -0.38775073385653      1.07385769455365
  H   -1.11005581756839      3.38177162664515     -1.00456923879239
  H   -3.55379196207549      3.37987237280101     -0.98324199829300
  H   -4.80130915459720      1.48761572939910      0.03490309571639
  C   0.57563641610772      1.49973257854329      0.02144417836610
  C   1.33620662618734      0.37371328580506      0.35825706882590
  H   0.86379913106224     -0.57034683048745      0.60759682141720
  C   1.32926258797049      2.64164191061717     -0.27607518406061
  H   0.84993596350962      3.58821555127785     -0.50191127516191
  C   3.26901124630131      1.51220164007968      0.03445384394796
  H   4.35386781833288      1.51448688320544      0.03079147691836
  N   2.66441683317272      2.65898575960857     -0.28556871983632
  N   2.67154008639216      0.36486309985554      0.36569149375932
