20
Coordinates from ORCA-job mp2_opt
  C   -2.82730419227275      1.08028532666350     -0.50520741274226
  C   -1.43541359448801      1.08750085686478     -0.52703992911178
  C   -0.71700067550319     -0.00511187385492     -0.02981052483354
  C   -1.40990084049015     -1.09584209658522      0.50636322371590
  C   -2.80175661353297     -1.09860799574668      0.53155871643059
  C   -3.51226518335707     -0.01190668725060      0.02457782914848
  H   -3.37688267264368      1.92587981482084     -0.90259416749435
  H   -0.89813516310794      1.93163230383801     -0.94724866788777
  H   -0.85253525350052     -1.93276276219918      0.91458429748179
  H   -3.33118711402658     -1.94505073963864      0.95376309983720
  H   -4.59584958772570     -0.01557544008768      0.04353634156782
  C   0.75413781214769      0.00970242967455     -0.02920870247766
  C   1.50791425646849     -0.99051755775839     -0.64553382338371
  H   1.01592091949709     -1.80083007223367     -1.17780236337018
  C   1.48383633673594      1.00233611043392      0.62725856271979
  H   0.97168582003630      1.80456686796728      1.15269273223601
  C   3.42889704852916      0.01010534901163      0.02066851749801
  H   4.51348539418459      0.01246731584074      0.03762605254479
  N   2.81945551715893      1.01592297396551      0.65687362292417
  N   2.84393578589038     -1.00016212372577     -0.63114440480330
