20
Coordinates from ORCA-job mp2_opt
  C   -2.83048993995050      1.05052992391967      0.56195277370467
  C   -1.43836816642949      1.05794043526157      0.58786960960317
  C   -0.71811198596331     -0.00607593134161      0.03567950091667
  C   -1.40766473446456     -1.06583543195333     -0.56210385507479
  C   -2.79978025849113     -1.06922419334915     -0.58982580925538
  C   -3.51294701441402     -0.01233980311772     -0.02697714277438
  H   -3.38189452831529      1.87448222086768      1.00024750952102
  H   -0.90256903711062      1.88200688689464      1.04779460721401
  H   -0.84787777602054     -1.88141307078982     -1.00836545450189
  H   -3.32705853277761     -1.89333658629662     -1.05661265037101
  H   -4.59646788772930     -0.01628706812003     -0.04856135513008
  C   0.75530817398718      0.01279787753484      0.03410153146621
  C   1.51111475157749     -0.91252658423054      0.75512357914500
  H   1.02092670335209     -1.66129305159584      1.37228300485008
  C   1.48146421004154      0.92479011979267     -0.73311291389245
  H   0.96648086573174      1.66408963155789     -1.34147321596360
  C   3.42926382955839      0.00867862052221     -0.02422685329140
  H   4.51381392042020      0.00996312539875     -0.04444115323412
  N   2.81733394523146      0.93719835706782     -0.76659351967528
  N   2.84746746176626     -0.92375347802308      0.73702180674354
