20
Coordinates from ORCA-job opt
  C   -2.98773817902827      1.08490692054173     -1.09579346419086
  C   -1.59556181508925      1.06714774382314     -1.07756834665961
  C   -0.90150748650746      1.46767444575834      0.06879785321589
  C   -1.61744821318435      1.90616252726123      1.18763284225295
  C   -3.00965405896073      1.92123277997427      1.16736694323640
  C   -3.69626570696370      1.51075672496997      0.02620884466359
  H   -3.51886147836720      0.77415816661622     -1.98834157085458
  H   -1.03882627737768      0.74894927346476     -1.95314185682467
  H   -1.07794162077397      2.22070999152462      2.07521936816771
  H   -3.55796668017363      2.25362600131760      2.04153622640904
  H   -4.77997942403694      1.52453772875327      0.01061717803183
  C   0.57173200482217      1.48440669891828      0.07451692716374
  C   1.29759744499089      2.67471677731775      0.13919393774238
  H   0.78293037759472      3.62979855621869      0.20914190438393
  C   1.32807013438793      0.31757987094923     -0.04644765484080
  H   0.83856749407838     -0.65089697287280     -0.11234517453365
  C   3.24529470868005      1.52365257832942      0.01048741993821
  H   4.32995431427325      1.53934141682771     -0.00955087399764
  N   2.66424488919722      0.32303363592553     -0.07589455525736
  N   2.63336057243857      2.70750613438102      0.11436305195350
