20
Coordinates from ORCA-job mp2_opt
  C   -2.82534922468604      1.19504124045400     -0.15261244213732
  C   -1.43511861383443      1.19518378922404     -0.10265433880707
  C   -0.71909699624926      0.00229821379450      0.07358454904188
  C   -1.44439414767368     -1.19442774090573      0.16455853929936
  C   -2.83455940049067     -1.19517921861899      0.11516766348320
  C   -3.53227488667161     -0.00018042897198     -0.04424292470879
  H   -3.35513052816491      2.13072816558308     -0.28983949210376
  H   -0.91113809039967      2.13443773911922     -0.22771917816882
  H   -0.92927826197746     -2.13454290045903      0.31857306916858
  H   -3.37183241472712     -2.13281724808457      0.19966618114151
  H   -4.61526704461015     -0.00059580567921     -0.08500542977488
  C   0.75736390016134     -0.00266387210425      0.06954623899290
  C   1.50658331479168     -1.16597666404520     -0.14371777237918
  H   1.02275647000223     -2.12387890058829     -0.30144722960422
  C   1.51871074578535      1.16635651201496      0.18555988111307
  H   1.04695464842328      2.12791271236500      0.35778967603857
  C   3.44787853370297      0.00009422055853     -0.04821057847842
  H   4.53188309708817      0.00005607961523     -0.08709501361692
  N   2.85257556538739      1.18208925459010      0.13214057382426
  N   2.84071633414259     -1.18079814786141     -0.19236597232394
