20
Coordinates from ORCA-job opt
  C   -3.00288890011483      0.48346782852709      0.69275359451303
  C   -1.61162318999708      0.48966371316766      0.69457332524956
  C   -0.89978900106759      1.51267922257984      0.05405589387706
  C   -1.62051219945201      2.51072986947675     -0.61585565494594
  C   -3.01182047590933      2.50430189343775     -0.61704066990763
  C   -3.70807034228763      1.49049583827580      0.03727233075623
  H   -3.53589581055614     -0.30928655540916      1.20524940049303
  H   -1.07959797111722     -0.28399415850147      1.23609815641164
  H   -1.09342078397927      3.28344824964466     -1.16371792965588
  H   -3.55140690690010      3.28438403565319     -1.14193666187372
  H   -4.79193303676584      1.48432298266001      0.03521463932363
  C   0.57239915405683      1.50407852176113      0.02049600197128
  C   1.32561098718898      0.33856668595853      0.19514249575240
  H   0.84145288831918     -0.62757990192090      0.30109865973530
  C   1.32243613986340      2.67702408087114     -0.11665162274763
  H   0.83389056378351      3.64296162407865     -0.20402066828977
  C   3.25883723761665      1.51077645377531      0.03672012405870
  H   4.34370713466964      1.51207683234141      0.03573662427333
  N   2.65764686374320      2.69313021193404     -0.12320800239889
  N   2.66097664890564      0.32775257168856      0.20401996340427
