20
Coordinates from ORCA-job mp2_opt
  C   -2.82339675052359      1.16438637028049     -0.30631774824222
  C   -1.43203048289679      1.16850703720456     -0.30335650299304
  C   -0.71623768411391      0.00674461805104      0.01411872819112
  C   -1.42662156308048     -1.16471242948878      0.30654470240007
  C   -2.81798775873214     -1.16682572300503      0.30622420205425
  C   -3.52057575635641     -0.00295247350026     -0.00067940031137
  H   -3.36297074641825      2.06999744629022     -0.55874583128846
  H   -0.89748850883590      2.07121783393873     -0.57836056561862
  H   -0.88933035644232     -2.06716121637609      0.57654856880320
  H   -3.35367355003035     -2.07753960427694      0.54838446440336
  H   -4.60436683113570     -0.00604386172306     -0.00277391724463
  C   0.75379550654063      0.00714913864870     -0.01293303023115
  C   1.50546757078873      1.12458481750451      0.36310269302039
  H   1.01470008402958      2.03539059576184      0.69481755100361
  C   1.49944647155188     -1.12232063322886     -0.36321647644937
  H   1.00516074653921     -2.03533151632349     -0.68304285190200
  C   3.43679355102431     -0.00293429343362     -0.00176075014049
  H   4.52145265697322     -0.00561875371148     -0.00248063203978
  N   2.83463870955869     -1.14042916374789     -0.36265128137359
  N   2.84064869155961      1.13617781113542      0.36409107795872
