20
Coordinates from ORCA-job mp2_opt
  C   -2.82128317579229      1.15474666586266     -0.34398797042639
  C   -1.42980464682696      1.15894226169072     -0.34125109290763
  C   -0.71602587144180      0.00587077329025      0.00912174471525
  C   -1.42507803949304     -1.15476880421703      0.34338749537733
  C   -2.81654905424577     -1.15635096403776      0.34363721803441
  C   -3.51825777738471     -0.00235925278531     -0.00072581825234
  H   -3.36128999892803      2.05215889020060     -0.62333411029468
  H   -0.89230314298006      2.05231187957485     -0.64083062858715
  H   -0.88473522719307     -2.04729289855039      0.64010249921741
  H   -3.35308300589155     -2.05787618609486      0.61635977868078
  H   -4.60205657045980     -0.00504934445567     -0.00222247903667
  C   0.75355902000087      0.00602983373003     -0.00834571879324
  C   1.50348147347174      1.10989676451373      0.40752498363616
  H   1.01010448837629      2.00774508847707      0.77006146640012
  C   1.49782001602275     -1.10756276766196     -0.40763341379809
  H   1.00070679076199     -2.00612306098609     -0.76300465763822
  C   3.43455088483009     -0.00319393818527     -0.00066005507038
  H   4.51920859370050     -0.00587693623259     -0.00084339655487
  N   2.83314287284327     -1.12537423771424     -0.40840582423866
  N   2.83881737062958      1.12103023358126      0.40985597953685
