20
Coordinates from ORCA-job opt
  C   -3.00168397516747      0.88273716360934     -1.00001437165933
  C   -1.61009055898014      0.89127285047965     -1.00655937030463
  C   -0.89937821394455      1.51007088367518      0.02917833282906
  C   -1.60949082839807      2.11370708513072      1.07425540503683
  C   -3.00106334633436      2.10330913718074      1.07966326857529
  C   -3.70032575640248      1.48853340475182      0.04265455517005
  H   -3.54013956315415      0.40837359851373     -1.81256559765850
  H   -1.07077596647191      0.44301418250418     -1.83430324776960
  H   -1.06906907222604      2.56638634619679      1.89883968806139
  H   -3.53889576227455      2.56812219697204      1.89811684214902
  H   -4.78416412134956      1.48093000921481      0.04742255190364
  C   0.56985794627395      1.51144283128701      0.02816534290341
  C   1.31592195754729      2.61259541945265      0.45697570197656
  H   0.82079142769388      3.52529027465339      0.77795510826018
  C   1.31694953422644      0.40528960273589     -0.38570121688740
  H   0.82224635382633     -0.50745715639664     -0.70718806755583
  C   3.25029827606863      1.50646309555095      0.04453030397871
  H   4.33511159596066      1.50505217152194      0.04951182887092
  N   2.65248600673342      0.39201845927285     -0.38831864619990
  N   2.65141306637270      2.62184944369295      0.47338258832011
