20
Coordinates from ORCA-job opt
  C   -3.00218524077628      2.25282104064024     -0.89996773231341
  C   -1.61051266494980      2.25741234558951     -0.89997991816823
  C   -0.89951626984241      1.50047059802427      0.03906591049343
  C   -1.60728027241924      0.73834118177517      0.97628773708619
  C   -2.99896578644020      0.73406775255365      0.97380829503959
  C   -3.69914574553440      1.49123383511761      0.03634346873228
  H   -3.54214792495576      2.84933709346566     -1.62647021772871
  H   -1.06975262366608      2.87171395858026     -1.61230076370505
  H   -1.06392576396316      0.12724740143474      1.68941062852046
  H   -3.53635452356506      0.13394838549851      1.69925394133867
  H   -4.78302598427104      1.48772184471131      0.03537769709513
  C   0.56966010345943      1.50418671117033      0.03942438122203
  C   1.31561069475967      1.45653958005578     -1.14110629663235
  H   0.81935573285564      1.39034703302607     -2.10588753211438
  C   1.31509580215915      1.55794659126164      1.21994919203862
  H   0.81835746451512      1.62132080342860      2.18468230020420
  C   3.24900318098527      1.51364483408701      0.03953753170288
  H   4.33383649848550      1.51718526060364      0.03962044821457
  N   2.65071236359671      1.55864980104402      1.23403364902143
  N   2.65117995956695      1.46486294793197     -1.15508272004733
