20
Coordinates from ORCA-job mp2_opt
  C   -2.81204258536613      1.12214788215990     -0.45254210023199
  C   -1.42024364549433      1.11998652477458     -0.45101837713924
  C   -0.71632593302769     -0.00438299983649     -0.00477690925309
  C   -1.42699556216527     -1.12169391051334      0.44852833892954
  C   -2.81878469062373     -1.11568056512665      0.45019947009405
  C   -3.51345919238489      0.00531753735357     -0.00120977193834
  H   -3.34893635481342      1.99346349608122     -0.80965031542747
  H   -0.87233385687805      1.98121726302000     -0.81935841887525
  H   -0.88398290564298     -1.98518657307256      0.81888108429530
  H   -3.36086650002121     -1.98260583251324      0.81012589372495
  H   -4.59723447794666      0.00874160664495     -0.00088226242670
  C   0.75330562971497     -0.00527971578330      0.00460043703712
  C   1.49413058118265      1.04906683435338      0.54287284073607
  H   0.99163861517049      1.89857843781251      0.99855743717252
  C   1.49937319220223     -1.05231738227204     -0.54073063613931
  H   1.00092762392919     -1.90198173831820     -1.00059702352647
  C   3.43007430870911      0.00235641268005      0.00247397423379
  H   4.51477031790991      0.00476590096644      0.00307278553651
  N   2.83508139318051     -1.06189378575281     -0.54613014118025
  N   2.82979104236531      1.06468160734204      0.54902069437828
