20
Coordinates from ORCA-job mp2_opt
  C   -2.80760031841551      1.06148330949584      0.58872318720770
  C   -1.41500973764946      1.05092674575578      0.58970601825938
  C   -0.71928773433704     -0.01428823091938      0.00985826661620
  C   -1.43274311938125     -1.06084852242977     -0.58217085887242
  C   -2.82530895863208     -1.04646345143971     -0.58416470965234
  C   -3.51446221060595      0.01363231236456      0.00177408594502
  H   -3.34009756379045      1.88817039945222      1.04494057424419
  H   -0.86021174150792      1.86444122029062      1.04574858302310
  H   -0.89171023128854     -1.88189602986777     -1.04123247569900
  H   -3.37160449333628     -1.86098340303870     -1.04591601646547
  H   -4.59815112648964      0.02365284251572      0.00012208942470
  C   0.75641285037478     -0.01697363916595     -0.00371747057326
  C   1.48844775589014      0.76215947113697     -0.90023900920908
  H   0.97864472166368      1.38482720960645     -1.63103587625123
  C   1.50580044738767     -0.77341745071669      0.89775998371899
  H   1.01045903981837     -1.39808038015007      1.63670797127452
  C   3.43040691546081      0.00892792020622     -0.00745662302595
  H   4.51512244814901      0.01729736248548     -0.01085374993459
  N   2.84252614706014     -0.77140083714170      0.90505325260716
  N   2.82488190962951      0.78201215155988     -0.91469622263762
