20
Coordinates from ORCA-job opt
  C   -2.98849899556134      1.07819969786405      1.17155246818909
  C   -1.59668511036249      1.10905385645804      1.17228112873625
  C   -0.90080937472594      1.54229051419130      0.03844653421727
  C   -1.61633853332725      1.92545203705093     -1.10124473099942
  C   -3.00818797971956      1.89547516071923     -1.09876662398969
  C   -3.69584974823165      1.47199070353146      0.03708343104178
  H   -3.52043133632019      0.73841346498581      2.05295029692813
  H   -1.04135831749991      0.78635858699498      2.04711318772569
  H   -1.07688019619742      2.26385896962969     -1.98007820100687
  H   -3.55566025095998      2.20347891891407     -1.98232781649944
  H   -4.77948488906303      1.44723554111447      0.03757227238257
  C   0.57050380439513      1.54202459776940      0.02753475872790
  C   1.30408098126403      0.80577867706734     -0.90463575740369
  H   0.79543595773458      0.21759263086946     -1.66447809524123
  C   1.32109524640422      2.23225517704750      0.98118289408003
  H   0.82686616136952      2.82749455925723      1.74502855501766
  C   3.24526508980430      1.48582614164538      0.04624483648365
  H   4.33003396004119      1.46725024422812      0.05041721116233
  N   2.65706366817589      2.21427033751034      1.00027033320767
  N   2.63983786277990      0.77470018315120     -0.91014668275968
