20
Coordinates from ORCA-job opt
  C   -2.99628532790042      0.30188316409976      0.22212475029721
  C   -1.60467719328104      0.30672681322259      0.22146679426671
  C   -0.89935396185346      1.50168653663801      0.03310587938767
  C   -1.61487915377060      2.69165624085050     -0.14768082942333
  C   -3.00650295803246      2.68506552052313     -0.14570482038906
  C   -3.70034811368890      1.49058807150787      0.03873749727966
  H   -3.53052228700493     -0.63134360100543      0.35946601894146
  H   -1.06083275377250     -0.62492580318211      0.33607503314372
  H   -1.07884591458022      3.62798992060210     -0.26142762595479
  H   -3.54863915245470      3.61417123344311     -0.28002148890965
  H   -4.78421395508866      1.48617813854252      0.04006582413347
  C   0.56984212428466      1.50945823653887      0.03994270376857
  C   1.31677865258200      0.70961207232049      0.90911668452249
  H   0.82211532217126      0.07281535274382      1.63777152395854
  C   1.31608790163800      2.30591586726917     -0.83277562790867
  H   0.82088765914152      2.93865760698876     -1.56466330259140
  C   3.25031400673755      1.51100611362462      0.04033694715342
  H   4.33513678996052      1.51276629586255      0.04151955615922
  N   2.65162729630070      2.32067380448355     -0.83865304177682
  N   2.65231001861167      0.69841541492611      0.91719752394157
