20
Coordinates from ORCA-job mp2_opt
  C   -2.83621652856228      1.20136442790519      0.00000668477576
  C   -1.44521948052411      1.20085796312457     -0.00001648697942
  C   -0.72037503565888      0.00000709301928     -0.00003565772715
  C   -1.44522083585488     -1.20084475023429     -0.00003115454496
  C   -2.83621739801356     -1.20136675649344     -0.00001674127777
  C   -3.54032247030969     -0.00000043482777      0.00000822265615
  H   -3.36905202256273      2.14532517402588      0.00001618931314
  H   -0.93204615740096      2.15343452056768     -0.00001311272697
  H   -0.93203337949579     -2.15341494344899     -0.00004836904937
  H   -3.36903636865352     -2.14533463618863     -0.00001513967812
  H   -4.62405792255057      0.00000875406928      0.00002277202611
  C   0.75924520989263      0.00000455129134     -0.00002795336367
  C   1.51867496419630     -1.17664315831592      0.00000877186707
  H   1.04732880043131     -2.15260494168958      0.00001710132699
  C   1.51870402731066      1.17664419618580     -0.00002670831328
  H   1.04740839277054      2.15263389126601     -0.00004605054723
  C   3.45600584250202     -0.00002731012578     -0.00000396910721
  H   4.54072002734163     -0.00005323877094      0.00003667551597
  N   2.85379904271763      1.19170958931521     -0.00001777250855
  N   2.85376929242426     -1.19175399067492      0.00002469834249
