20
Coordinates from ORCA-job opt
  C   -2.98880498150936      0.33157720349209     -0.28368426684453
  C   -1.59626884324886      0.34688504401923     -0.29727392643682
  C   -0.90277082391548      1.51972043454804      0.01668317064893
  C   -1.61833374507877      2.67138976907155      0.35860231980278
  C   -3.01085829631400      2.65361253743284      0.37019117739106
  C   -3.69759905905844      1.48428083239158      0.04924262715851
  H   -3.51978478621253     -0.58147012953502     -0.52808969410449
  H   -1.03965940970311     -0.54997219632870     -0.54926875629455
  H   -1.07871839621936      3.57958751324652      0.60686152991837
  H   -3.55907860957086      3.55189063248275      0.63071536280509
  H   -4.78136775735099      1.47099486868034      0.05975307396077
  C   0.57298197665253      1.52878243469462      0.02698895902637
  C   1.30438533466669      1.45592182492735      1.21294892949605
  H   0.79460004831072      1.40655107395588      2.17178943782193
  C   1.32321219522758      1.56802369594491     -1.14878044163420
  H   0.82889989395691      1.61686602968253     -2.11568815083009
  C   3.24676283390234      1.49420124668118      0.04646671737385
  H   4.33165817888860      1.48398117631248      0.05472211541104
  N   2.65994524068548      1.55443251777464     -1.15282537875369
  N   2.64080000589094      1.44174249052518      1.23664619408361
