20
Coordinates from ORCA-job mp2_opt
  C   -2.80241752917038      1.06950798189158     -0.57959967064626
  C   -1.41012778656599      1.05384045924541     -0.57982605066451
  C   -0.71814444663635     -0.02159527607583     -0.01367215015681
  C   -1.43625101038722     -1.06935680269949      0.57137784352421
  C   -2.82852567938558     -1.04963508556955      0.57343712122975
  C   -3.51334859861440      0.01863426296661     -0.00284790077256
  H   -3.33168983542907      1.90218271940097     -1.02858783721648
  H   -0.85220979873534      1.86825562948552     -1.03053627950787
  H   -0.89853795359433     -1.89421301711629      1.02762276327730
  H   -3.37814418735948     -1.86458452388140      1.03042244865332
  H   -4.59699575946957      0.03291320858303     -0.00117287091004
  C   0.75524707368582     -0.02404122509051      0.00942427732351
  C   1.48378375080020      0.90959784264458      0.74778880443221
  H   0.97072989836590      1.65062779215704      1.35567924893545
  C   1.50902029421760     -0.92484003494238     -0.74406001952215
  H   1.01689944579352     -1.66955356503790     -1.36456342215405
  C   3.42957087062293      0.01392096026578      0.00801335895184
  H   4.51423464082541      0.02623305991996      0.01133300740910
  N   2.84550577923382     -0.92050466396681     -0.74904294690714
  N   2.81983283180251      0.93755827781968      0.75822127472118
