20
Coordinates from ORCA-job opt
  C   -3.00796209670254      1.31133741454811      1.23188396293727
  C   -1.61693792202872      1.28216908846753      1.23116033833728
  C   -0.89954044163783      1.44782267677571      0.03912962644030
  C   -1.61041473534253      1.66620782531908     -1.14830441416333
  C   -3.00153033722206      1.69521691544956     -1.14659018836355
  C   -3.70469430218106      1.51798963964490      0.04309762955980
  H   -3.54742228953396      1.16988606546094      2.16148566219869
  H   -1.08705665620472      1.08911305448661      2.15728539937987
  H   -1.07468195130114      1.84436567847915     -2.07388530763786
  H   -3.53574938235585      1.86926568776824     -2.07369156369964
  H   -4.78830962749155      1.54220521935766      0.04404264920159
  C   0.57191819863355      1.45643407842797      0.04351609810610
  C   1.32872755742545      1.09005945680307     -1.07384598071580
  H   0.84651108486284      0.72379976420624     -1.97566287042746
  C   1.31369512023427      1.89291424328681      1.14574514623192
  H   0.81741407795359      2.24445256694215      2.04567957444771
  C   3.25486225005528      1.54593891307180      0.02913149387422
  H   4.33927220689360      1.57722204334899      0.02515715340416
  N   2.64853199322034      1.93212787216818      1.15543021937868
  N   2.66336425272304      1.13047379598730     -1.09476562848996
