20
Coordinates from ORCA-job opt
  C   -2.99150554406493      2.58769885818322     -0.47553416672461
  C   -1.59922325225410      2.59186819945724     -0.44962192895798
  C   -0.90209318041041      1.50090096903451      0.07910075165896
  C   -1.61440972680139      0.39865977108756      0.56242379306869
  C   -3.00671685021291      0.39774786046195      0.53682655804565
  C   -3.69675796590731      1.49174459084876      0.01805530767630
  H   -3.52515469177434      3.43670466418231     -0.88750654558315
  H   -1.04515248366927      3.43835044135728     -0.84236742595494
  H   -1.07223098559332     -0.44964566625077      0.96761082547773
  H   -3.55233408866313     -0.45683254568006      0.92062194833818
  H   -4.78045740137547      1.48953275691658     -0.00308251245169
  C   0.57229840130837      1.49134971283050      0.07422471264241
  C   1.30315034165392      0.67142980930937     -0.78658526109096
  H   0.79272810113999     -0.00424639285588     -1.46833328509560
  C   1.32324362132114      2.34096058238158      0.88770184496873
  H   0.82944912967411      3.01866448799523      1.57957253844746
  C   3.24583017409664      1.52042127835662      0.01354907356497
  H   4.33055895975533      1.52849008816632     -0.00767023875758
  N   2.65959675703322      2.36270957705823      0.86988587199837
  N   2.63918068474388      0.67248995715945     -0.82287086127095
