20
Coordinates from ORCA-job mp2_opt
  C   -2.82907943152632      1.04143128714868     -0.58327573083275
  C   -1.43671142623275      1.04860545918571     -0.60421147400785
  C   -0.71873639838704     -0.00465463455723     -0.02942957133709
  C   -1.41018064997364     -1.05452999122992      0.58294824067414
  C   -2.80253791277832     -1.05761965607418      0.60551750743632
  C   -3.51373317607725     -0.01090484112104      0.02168722044244
  H   -3.37885095275690      1.85769114835491     -1.03775782231875
  H   -0.89920865979412      1.86534102020243     -1.07502237054487
  H   -0.85195946723001     -1.86358596961841      1.04277243957736
  H   -3.33148261612937     -1.87435507861657      1.08328436481838
  H   -4.59732695137015     -0.01466798675460      0.03921967037799
  C   0.75592613759772      0.01199961816823     -0.02750937381070
  C   1.50947531726237     -0.85344032474306     -0.82113963667690
  H   1.01739631637840     -1.55397402602997     -1.49107244401030
  C   1.48404538297670      0.86428871963603      0.80345154855994
  H   0.97076625678766      1.55683336073966      1.46580291042307
  C   3.42982305912226      0.00661750253319      0.02001473152827
  H   4.51444078218783      0.00717888805474      0.03656771102445
  N   2.82022249910080      0.87472559144814      0.83386137084393
  N   2.84605989084213     -0.86438608672674     -0.80936629216710
