20
Coordinates from ORCA-job opt
  C   -3.00618763023025      0.33611912232423      0.36538163401527
  C   -1.61500490183675      0.34025857487035      0.36438254807091
  C   -0.90021167925405      1.49458894272786      0.01615910827844
  C   -1.62340384568067      2.65507328604728     -0.29332756895131
  C   -3.01463430164926      2.65080280561366     -0.29318920031049
  C   -3.71206359392797      1.49106902188862      0.03640684839651
  H   -3.53829548728016     -0.57197559489687      0.62506381419694
  H   -1.08794259084882     -0.57796192129571      0.59441922791272
  H   -1.10112537216060      3.57877027031310     -0.51253544420942
  H   -3.55302941919775      3.55972415707438     -0.53649123240207
  H   -4.79592620459419      1.48770267864003      0.03860875800390
  C   0.57364066560701      1.51714818355130      0.05482359077052
  C   1.32944812523798      0.55225072422716      0.72973332393406
  H   0.84976040527185     -0.22549346421511      1.31544711604671
  C   1.32602165138897      2.46124007169677     -0.65325566945550
  H   0.84189577946010      3.22104486928584     -1.25875294525065
  C   3.26312920887673      1.51589420197641      0.04489094279434
  H   4.34798432611559      1.52059968694890      0.04876304868170
  N   2.66114938559554      2.48075628922601     -0.65569861808794
  N   2.66479447910670      0.54138809399578      0.73517271756535
