20
Coordinates from ORCA-job mp2_opt
  C   -2.81550722467114      1.13383996480401     -0.41643799915204
  C   -1.42382188789255      1.13474400170083     -0.41466891855400
  C   -0.71610228434341      0.00002498702103     -0.00070749741274
  C   -1.42539109368248     -1.13346312708066      0.41401935257601
  C   -2.81707125286436     -1.13098481595584      0.41507771880370
  C   -3.51466925122500      0.00183618494396     -0.00090616269288
  H   -3.35412917554656      2.01437283641898     -0.74737784652974
  H   -0.87955937023182      2.00754812459759     -0.76022491506801
  H   -0.88223886613382     -2.00669491988100      0.76025179910113
  H   -3.35689948338958     -2.01070280109439      0.74621430728255
  H   -4.59846327361933      0.00250658264464     -0.00117708738047
  C   0.75328900278846     -0.00047143540060      0.00102110381207
  C   1.49770984707131      1.07272770269114      0.49647087081041
  H   0.99850750998231      1.94047719382470      0.92008510246789
  C   1.49790284350847     -1.07318629799742     -0.49524970591250
  H   0.99877585265630     -1.94054206366116     -0.91976860578393
  C   3.43120560398145     -0.00036933976136      0.00121468557659
  H   4.51588703116163     -0.00038395191908      0.00145596241108
  N   2.83347289313498     -1.08670432224609     -0.49906481692988
  N   2.83329357931513      1.08612249635073      0.50089565257476
