20
Coordinates from ORCA-job mp2_opt
  C   -2.82896614659389      1.18931191874809     -0.18257119656543
  C   -1.43781272131814      1.18963516445331     -0.18023055150964
  C   -0.71783332265724      0.00393467840645      0.02448860250154
  C   -1.43646178526841     -1.18923842129678      0.18389190842758
  C   -2.82757078011536     -1.18976069716882      0.18213017514096
  C   -3.53014690375154     -0.00064129464643     -0.00086615601604
  H   -3.36448144568884      2.11814380241970     -0.34220659589414
  H   -0.91294174410682      2.11906326809667     -0.36598809129393
  H   -0.91265995230984     -2.12133700368252      0.35814701056752
  H   -3.36236131601984     -2.12209271771561      0.32264077231040
  H   -4.61391809624611     -0.00182929575774     -0.00423289426701
  C   0.75580117899091      0.00440622043214     -0.02181672463588
  C   1.51100845469277      1.15739683063899      0.22186180068543
  H   1.02873696703111      2.10312710289007      0.44764111898501
  C   1.50945381365170     -1.15817043538718     -0.21854903393857
  H   1.02790237100447     -2.10988652120439     -0.41839055488723
  C   3.44609699322394      0.00037191415480     -0.00508572528611
  H   4.53078655736307      0.00033138960818     -0.00870070539356
  N   2.84449712259839     -1.17350189106707     -0.21701873014758
  N   2.84589675551967      1.17266998807814      0.21923357121669
