20
Coordinates from ORCA-job opt
  C   -3.00059059142388      1.69817466588622     -1.15108864513950
  C   -1.60905156217781      1.70093796930907     -1.14984606660114
  C   -0.89924713185845      1.49118734937840      0.03909643697804
  C   -1.61233598872309      1.29156401813177      1.22787971555743
  C   -3.00391075661907      1.29000267418735      1.22505184880779
  C   -3.70135910243661      1.49313095668950      0.03588672267367
  H   -3.53754602435421      1.85132676507996     -2.08030682906293
  H   -1.06981845867078      1.83136303214776     -2.08194096155253
  H   -1.07517531728180      1.16572972258793      2.16185602302409
  H   -3.54329772619048      1.14007654220711      2.15338886065540
  H   -4.78526550148757      1.49217623661988      0.03422282484754
  C   0.57045606362964      1.50851994677726      0.04601503349049
  C   1.31309222910207      2.35248786898765     -0.78447866402208
  H   0.81568322680212      3.06073870293582     -1.44160263736272
  C   1.32227121388329      0.66068221143224      0.86428443635832
  H   0.83198199628975     -0.05545612220772      1.51828923306988
  C   3.25146486728249      1.51459007971480      0.03771363342541
  H   4.33633468334734      1.51891698522199      0.03607870188782
  N   2.65779412442827      0.65919481860599      0.87560097499718
  N   2.64852075645879      2.36365657630701     -0.80010164203215
