20
Coordinates from ORCA-job mp2_opt
  C   -2.82158597153906      1.11330717096833     -0.44280683039102
  C   -1.42983621385754      1.11837845458718     -0.45250838285540
  C   -0.71629950743840     -0.00253767705838     -0.01291146243224
  C   -1.41733409076161     -1.12398543357760      0.44521007552711
  C   -2.80907747911445     -1.12523442427567      0.45807733799121
  C   -3.51337189262353     -0.00769444904247      0.01303749570474
  H   -3.36595886301145      1.98209489442005     -0.79468665718637
  H   -0.88934355097504      1.98292215772351     -0.82409789616500
  H   -0.86702594331885     -1.98473890353095      0.81106777175341
  H   -3.34360199465755     -1.99527633956193      0.82179140065253
  H   -4.59711186385831     -0.01009226489362      0.02212191332642
  C   0.75333029137014      0.00452083855572     -0.01322721327732
  C   1.50239457106716     -1.04742327631593     -0.54475763803740
  H   1.00668737840054     -1.89949838725001     -1.00311837525429
  C   1.49114159681614      1.05495451983104      0.53684104667577
  H   0.98598086951039      1.90283315180605      0.99261257125289
  C   3.43005012896821      0.00730161075736      0.00916936598379
  H   4.51472094974985      0.00922106399717      0.01671129380058
  N   2.82672073625520      1.06967112683780      0.55228773432810
  N   2.83810784901817     -1.05796983397767     -0.54073155139751
