21
Coordinates from ORCA-job opt
  C   0.98411037688455      1.05283314555756      0.12431872324998
  C   1.67752175891726      2.33896761422907      0.09349486676345
  N   -0.07474874895343      0.94096591518714      0.94956276337046
  N   1.52298873857259      0.05427354394765     -0.59789327982782
  N   1.05241656556476      3.50684464848163     -0.26502896863239
  C   3.03400090654157      2.61130215842054      0.24265611393589
  C   -0.36599656721419      3.66128853493922     -0.52270914130950
  C   1.97191343896404      4.51674608153292     -0.30617539206806
  H   -0.53144474288921      4.65556102651973     -0.93400956637743
  H   -0.69901548645963      2.91892508994167     -1.24885037737903
  H   -0.94050993847108      3.53972885622466      0.39481789071214
  C   3.21375592595199      3.98849058379923      0.01316532543608
  H   1.67077991074369      5.52112930150365     -0.56083832134819
  H   4.13744368134007      4.54339383841122      0.06553195556723
  H   3.78514348799359      1.87797359717156      0.49288525967115
  C   -0.65643136158052     -0.25980799636278      1.01671151714262
  C   -0.17708024409783     -1.35634578580271      0.31183744388714
  H   -1.51869089356495     -0.34150544356395      1.67199490660698
  C   0.93751876227036     -1.14204341317650     -0.48857115206917
  H   -0.64513063290540     -2.32946723466019      0.38654952269010
  H   1.37955406239176     -1.94715506230133     -1.06815109002163
