21
Coordinates from ORCA-job opt
  C   0.65985667101169      1.14001884760070     -0.27703355314526
  C   1.26776711877684      2.42896253590469     -0.59050125339422
  N   1.28823436276720      0.35899600035811      0.62318800088270
  N   -0.42424080851838      0.79188854650715     -0.99398919668921
  N   1.57366058102784      3.36233603379291      0.36873862943933
  C   1.49714324989293      3.00852808285590     -1.83569095413318
  C   1.46657820793381      3.17631379725840      1.80313151118933
  C   2.02737661518543      4.49920357160823     -0.23790280116771
  H   1.60626786390888      4.14409963054694      2.28181666496456
  H   0.47824118940449      2.79414290969049      2.05957725931071
  H   2.21823875830099      2.47338022896600      2.15929723695540
  C   1.99797841543456      4.30373444154406     -1.61088226890903
  H   2.32845758299084      5.35099184816964      0.35217286337329
  H   2.30113724277400      5.02451423577242     -2.35413245414918
  H   1.31671603008445      2.52206605384878     -2.78186868431773
  C   0.75349095377183     -0.84442683097459      0.84727238986683
  C   -0.36500565751585     -1.29879848042835      0.16081529043452
  H   1.25449410919347     -1.46420669949124      1.58518656739049
  C   -0.91845529255819     -0.42872562593208     -0.76995446944520
  H   -0.78048754971089     -2.28248121200955      0.33759411019631
  H   -1.78935264415596     -0.70843791558862     -1.35553288865275
