21
Coordinates from ORCA-job opt
  C   0.84816741799776      1.05105512815710     -0.22849006073036
  C   1.44667020886191      2.34832293022153     -0.47434280450804
  N   1.34894329634456      0.03193899898685     -0.95823673231377
  N   -0.14251301073474      0.94501695243638      0.67568405920455
  N   1.23708828732737      3.48173036441878      0.28014511433776
  C   2.33733989736589      2.68212775733486     -1.49978254089082
  C   0.41804570956936      3.63804884958850      1.47189166241360
  C   1.96903921275398      4.50648226291257     -0.24883661418745
  H   0.55939805730304      4.65662569788152      1.83060083820372
  H   -0.63130800500148      3.46463055072361      1.24610149936525
  H   0.72390337471916      2.93381975136783      2.24315031428164
  C   2.65954189902670      4.03822049442423     -1.35760575543415
  H   1.94340239566195      5.48350460359324      0.20872559605936
  H   3.31688421900076      4.62367943179660     -1.98142641722583
  H   2.68596509704124      1.98726849889893     -2.24710873744243
  C   0.80575700729084     -1.16648670800024     -0.75990447573789
  C   -0.21803799755683     -1.38414259103462      0.15718552785527
  H   1.21050637042634     -1.98060763511560     -1.35463292188593
  C   -0.65886593400456     -0.27350360027931      0.86035716989172
  H   -0.64642985078224     -2.36557834354130      0.31278726216725
  H   -1.45539665261101     -0.35005239477145      1.59503601657655
