21
Coordinates from ORCA-job opt
  C   0.38130783417005      1.25860227778308     -0.16928258589855
  C   0.86772955769083      2.59752581006899     -0.45411938871149
  N   -0.95688910452329      1.11280138427326     -0.10273904368832
  N   1.28505563495636      0.27874332551137      0.02179809873308
  N   2.02159304413106      3.12996028444091      0.07157752391544
  C   0.24118393255115      3.59616852177584     -1.20087575517439
  C   2.97362160111840      2.47519513383554      0.95168662416219
  C   2.14352209791348      4.42542222561136     -0.34415531327311
  H   2.45622437793961      2.01059784278201      1.79005030966127
  H   3.53077678306545      1.70733767816224      0.41927142340593
  H   3.65325983511135      3.23765971471577      1.32927216246706
  C   1.05416987840838      4.73900419665634     -1.14449878567351
  H   2.98772665966491      5.02014808109363     -0.03089077176753
  H   0.87989071862204      5.69028484541534     -1.62258827163636
  H   -0.69750248839790      3.47104716864689     -1.71776291013039
  C   -1.40897535384124     -0.11803694429335      0.13899782202830
  C   -0.56049670741777     -1.19849769338817      0.35358670472341
  H   -2.48839618121163     -0.23362934162580      0.17696014153041
  C   0.80095662550970     -0.93704680881867      0.29094581205362
  H   -0.94153515532979     -2.18946703031180      0.56330782467259
  H   1.53487740986887     -1.72172067233481      0.45075937860037
