21
Coordinates from ORCA-job opt
  C   0.39362794320127      1.25765869224042     -0.24733214896225
  C   0.89035794379039      2.59926688289954     -0.56817255918551
  N   -0.82214991090165      1.17023029790147      0.31945292136594
  N   1.22469981680527      0.22525108407106     -0.48418407891310
  N   1.92957943320076      3.16423691453222      0.12591156715791
  C   0.39459797758454      3.55533734164024     -1.44616195792202
  C   2.72229738857818      2.49535223243002      1.13752215290311
  C   2.12437495046932      4.44430673330998     -0.31371869579888
  H   2.07263720354966      2.06523823596334      1.90123244877639
  H   3.32327659482776      1.70140188947878      0.69415494618138
  H   3.37423360729178      3.23116209903477      1.60493910678327
  C   1.18544254068960      4.71282566338765     -1.29672001380593
  H   2.90758949469054      5.05482541364634      0.10817186228859
  H   1.08663892258056      5.64263572684631     -1.83476327632319
  H   -0.44367896028467      3.40996133949872     -2.11015222956764
  C   -1.25559139831362     -0.06037344510297      0.61269535119986
  C   -0.48511847153328     -1.19347573814429      0.38750238418587
  H   -2.24470238546481     -0.12803165950298      1.05587935053076
  C   0.77490753050708     -0.99108429693774     -0.16025294997897
  H   -0.84389645581111     -2.18385334623092      0.63697153839088
  H   1.44897523454240     -1.82077106096200     -0.35167471930645
