21
Coordinates from ORCA-job opt
  C   0.99704459883959      1.02851612345255     -0.11924836530471
  C   1.68960132233674      2.30747820491684     -0.34458975966189
  N   0.16727109731251      0.60166649271444     -1.08680797258258
  N   1.24059636831256      0.39537192916199      1.04124153716889
  N   1.13349063817853      3.49319067066636      0.05741876093742
  C   2.90927811272525      2.58812726103901     -0.94294492350608
  C   -0.14383369648547      3.61794739314862      0.72774289062405
  C   1.97240516401664      4.52319545299210     -0.27017443999311
  H   -0.33363991482294      4.67229466557282      0.91980990861526
  H   -0.94304979191546      3.22081682779369      0.09992261375434
  H   -0.13018895676565      3.07936980062382      1.67662064338289
  C   3.08645813336046      3.98825021314323     -0.89465890050694
  H   1.70862669626990      5.54216728155825     -0.03337958106956
  H   3.92729143519599      4.55002400014572     -1.27037848598935
  H   3.58104432279679      1.85414471129214     -1.36090462376305
  C   -0.44376242749198     -0.56930996583319     -0.87607070196183
  C   -0.24434947577744     -1.31195635457165      0.28005337327424
  H   -1.11054804336922     -0.91235457371523     -1.66153288940265
  C   0.61655327313424     -0.77298760066629      1.22677392450122
  H   -0.74059995158382     -2.26095993658854      0.43835654031503
  H   0.81841209573278     -1.28289159684666      2.16404945116839
