21
Coordinates from ORCA-job opt
  C   0.61672398312930      1.14638731366744     -0.28576435988918
  C   1.18147594783438      2.45233518841679     -0.57261546445342
  N   1.04057508010227      0.48938180818407      0.81053817447159
  N   -0.24728133422594      0.66291680168072     -1.20104034749160
  N   1.63395312564586      3.33372376654868      0.38180033146363
  C   1.30858992973106      3.07238157118476     -1.81735433026575
  C   1.65061903319796      3.14812579026240      1.82281744822046
  C   2.05573600870276      4.47751387991494     -0.23406013206968
  H   1.89561462892184      4.10776802112940      2.27555461524144
  H   0.67200574606939      2.82466948153099      2.17446305545970
  H   2.38582713419084      2.39959149294550      2.10953190093929
  C   1.87204110298765      4.33918429927027     -1.60268481506691
  H   2.44416844177771      5.29788614997254      0.34962783411743
  H   2.12069989044423      5.07938784533420     -2.34712149056911
  H   1.01885490126488      2.62083130691167     -2.75315135163915
  C   0.52618263735225     -0.72635559993409      1.01600062915041
  C   -0.37186196361828     -1.31291351831297      0.13591447432737
  H   0.86296139257671     -1.24540137892754      1.90881655697593
  C   -0.72247461743149     -0.56242173585257     -0.98125650280678
  H   -0.77374268170655     -2.30308001782067      0.30668365079844
  H   -1.41256738694686     -0.94981346610653     -1.72539887691411
