21
Coordinates from ORCA-job opt
  C   0.89902734321728      1.03798271649888     -0.19199290902481
  C   1.52654801735645      2.32579734500880     -0.41855342050582
  N   1.01116014101486      0.14671271410657     -1.19860817469604
  N   0.26719100553075      0.81815448295871      0.97575800615566
  N   1.22319075969169      3.48439447564373      0.26036417148763
  C   2.50718710327417      2.63382018089384     -1.36534860120846
  C   0.22790722962052      3.67964856301564      1.30202825473572
  C   1.99247504829854      4.50017618845621     -0.23182296556946
  H   0.16852452457080      4.74890439821996      1.49996598436092
  H   -0.74476543083186      3.31853300046225      0.97225465499105
  H   0.50432907970432      3.14571312028820      2.20799869902616
  C   2.80467228368080      3.99801655198215     -1.23873744195160
  H   1.89430042610607      5.49784526358404      0.16767956546559
  H   3.52410309295379      4.56676703421054     -1.80695759332354
  H   2.93466567229703      1.91780105427240     -2.04933095703733
  C   0.45914273245130     -1.04848833675206     -0.99940171415143
  C   -0.22419162922907     -1.37396540481693      0.16801430085506
  H   0.56101111692883     -1.76491856567854     -1.80967066147056
  C   -0.29405426957707     -0.38372583688726      1.13656689198380
  H   -0.67726601198458     -2.34610575591772      0.31172607220818
  H   -0.80705823507463     -0.55096418954942      2.07936583766929
