21
Coordinates from ORCA-job opt
  C   0.78136103884849      1.08587094766575     -0.32287543173898
  C   1.33969332964481      2.40149465078896     -0.60851015126942
  N   1.57602945729108      0.02559979718941     -0.56027933859548
  N   -0.46008702168363      1.03398295049072      0.19723916703309
  N   1.30523264275409      3.44272845205529      0.28700000753460
  C   2.10540109703774      2.80553634977905     -1.70000249751624
  C   0.63992138419646      3.45126382864311      1.57639223713870
  C   2.00025359559052      4.50017228894208     -0.22825206465949
  H   0.96614361061493      4.33850537628682      2.11663143741437
  H   -0.44179823387530      3.46552734772638      1.45495805860516
  H   0.91668163582981      2.56610031204359      2.14894968554238
  C   2.50207959315281      4.13423520477094     -1.46856919019158
  H   2.08712680746682      5.41972269659733      0.32965095398217
  H   3.09011355618050      4.76335378892759     -2.11837554133515
  H   2.33026127972148      2.18493719345741     -2.55369560180135
  C   1.05482488611853     -1.17661537219558     -0.30353227966537
  C   -0.21951649357996     -1.34050314396253      0.22561438316341
  H   1.69243598642921     -2.03052328974922     -0.51326554921520
  C   -0.94234465861453     -0.18112588697202      0.47279804918953
  H   -0.62411743298043     -2.32065776470935      0.44249031101013
  H   -1.94159506014343     -0.21750672777573      0.89693335537472
