21
Coordinates from ORCA-job opt
  C   0.76552235008528      1.09844826208873     -0.35182561943638
  C   1.32214288411782      2.42205330429270     -0.65800869994920
  N   1.63410020810531      0.08298934379200     -0.20761179656215
  N   -0.56664449484310      1.02213979464518     -0.17609190525477
  N   1.38919945581284      3.40336385605519      0.29704423484829
  C   1.94785639377334      2.89753070616898     -1.80291776372685
  C   0.83815668567165      3.30291219424228      1.63282124267450
  C   2.01775378422617      4.50073383889644     -0.22383587062264
  H   1.14832288783351      4.17826011340771      2.20060513203810
  H   -0.25072238215086      3.25733032185694      1.59793048889598
  H   1.21693195700152      2.40849783738966      2.12998595008585
  C   2.37307959631823      4.21500316306817     -1.53191204642828
  H   2.15995157887341      5.38656166077344      0.37547351788538
  H   2.88530490112484      4.88442697825456     -2.20518608471638
  H   2.07179912555698      2.34014440217560     -2.71870448071174
  C   1.11000601058303     -1.11351100520145      0.07986408320839
  C   -0.25386066457504     -1.30389698936551      0.25757817852820
  H   1.81384046990456     -1.93415640069775      0.18200194248675
  C   -1.06176602246436     -0.18172786882624      0.12868800892655
  H   -0.66585241321826     -2.27622449113797      0.49571286268665
  H   -2.13702631173688     -0.23877902187870      0.26968762514377
