21
Coordinates from ORCA-job opt
  C   0.44790620344360      1.23623204965778     -0.25630313611463
  C   0.88458925082721      2.61199730063231     -0.54316033192333
  N   -0.60236725835536      1.08522918961058      0.56894162379145
  N   1.14222358131386      0.23994009680227     -0.83292406619479
  N   1.82253157211096      3.23364513952227      0.23846750468140
  C   0.50245629610611      3.49830535976382     -1.53955580144684
  C   2.48135381016683      2.62479015864096      1.37492027089334
  C   2.04908789351038      4.49523795570273     -0.24008662468739
  H   3.12526205314876      3.36764446257476      1.84200211064330
  H   1.74255414494773      2.28711007227345      2.10323375810495
  H   3.08761982164084      1.77512034619124      1.05652502872904
  C   1.23950526943989      4.68732369339817     -1.34685254535281
  H   2.76092962122551      5.14580742375805      0.24368756840912
  H   1.18907651870727      5.58664652038111     -1.94049627911886
  H   -0.22749344771675      3.29369605619541     -2.30766242424618
  C   -0.99787879011987     -0.16980427773574      0.80907116839644
  C   -0.36154170358502     -1.26810079227122      0.24619951285335
  H   -1.84871023251942     -0.28742647502618      1.47349174050992
  C   0.72616701311872     -1.00498618191506     -0.57586174045193
  H   -0.69292140012006     -2.27958473851046      0.44367930238992
  H   1.28774878270880     -1.80672435964628     -1.04601763986545
