21
Coordinates from ORCA-job opt
  C   0.99465945608565      1.02263656914512      0.03275370281035
  C   1.65216036324511      2.30212836223224     -0.15136940124511
  N   -0.33405976004041      0.93881548335937     -0.16425279879821
  N   1.80336182285971     -0.01067015962963      0.34677166411608
  N   1.02195937741509      3.52603256377573     -0.13222276598523
  C   3.01643969511438      2.53104262903535     -0.35048462223429
  C   -0.38636731911555      3.80694682721877      0.09494859552793
  C   1.95367872032027      4.50668580316217     -0.32176745065570
  H   -0.49342814870795      4.88720650285209      0.18212482146925
  H   -0.99367824412643      3.43537593361580     -0.72687695023059
  H   -0.72565713913165      3.33437380640204      1.01510937339695
  C   3.20103782804168      3.91593923576454     -0.46628804656652
  H   1.65570741256745      5.54385782633965     -0.33121529650978
  H   4.12822468444361      4.44088137265626     -0.63568432294173
  H   3.75968498774548      1.75139326189805     -0.40410272345368
  C   -0.88856103233348     -0.26666521750215     -0.00721115955323
  C   -0.14523866917421     -1.39200476691549      0.31616494749540
  H   -1.96264103445179     -0.32371666122788     -0.15924663059092
  C   1.22367935901140     -1.20214230882399      0.47691279922962
  H   -0.60397942363992     -2.36503909436545      0.43334490492051
  H   1.88111706387154     -2.03097796899260      0.72389235979889
