21
Coordinates from ORCA-job opt
  C   0.38702310310187      1.25648831172118     -0.20000668990805
  C   0.87987608868660      2.59333679952080     -0.49793532255288
  N   -0.93853665916863      1.13422718506094      0.00358324357186
  N   1.28802222551126      0.25890762942063     -0.11421346863553
  N   2.00018650572346      3.13672788933194      0.08366232147579
  C   0.28087323478491      3.58475255183899     -1.27350749859713
  C   2.91443845772583      2.47522768729124      0.99646206055546
  C   2.13572227080271      4.43140493827604     -0.33082274241459
  H   2.36004983402165      1.98682477932474      1.79733804785458
  H   3.50867130310812      1.72623408185411      0.47641050160163
  H   3.56468452304967      3.23515984478879      1.42694295785882
  C   1.08400994660564      4.73411266302200     -1.18348368867775
  H   2.96092354019513      5.03216324696738      0.01926906093398
  H   0.92559648325729      5.68242723065648     -1.67280799641959
  H   -0.63339842676312      3.45482598145944     -1.83168552848478
  C   -1.38842538034515     -0.09499337922244      0.26412975922288
  C   -0.54343974596670     -1.19341136196499      0.36948460332045
  H   -2.46026790725702     -0.19235517874210      0.41059253009127
  C   0.81064695606381     -0.95398343811264      0.17888763211609
  H   -0.92046384371303     -2.18226559473193      0.59614035220469
  H   1.54190649057566     -1.75371386776062      0.25286086488281
