21
Coordinates from ORCA-job opt
  C   0.39419142838789      1.25618256988449     -0.24457821175827
  C   0.89163264065158      2.59599938737082     -0.56189575743306
  N   -0.85389658266805      1.16495969180000      0.24736830313468
  N   1.24983017589865      0.22927650448670     -0.40787322617985
  N   1.94566584334008      3.15667275904260      0.11422103395847
  C   0.37020962057891      3.56253928796479     -1.41444645744601
  C   2.76102301209978      2.48812499144602      1.10863358189642
  C   2.12396470351344      4.44251738988731     -0.31442423467891
  H   2.12894466487865      2.05803595180144      1.88679871545454
  H   3.35157603774935      1.69415770354125      0.65269582727417
  H   3.42184400736403      3.22594218875217      1.56017181492597
  C   1.16060808805688      4.72000913904963     -1.27160340931224
  H   2.91357573731139      5.05179536866984      0.09731796237804
  H   1.04804376721141      5.65563620944100     -1.79664087004331
  H   -0.48405447764953      3.42132591571356     -2.05866437730818
  C   -1.29102950195786     -0.06472632964796      0.53712182210051
  C   -0.49485780714770     -1.19271610829719      0.38621759781150
  H   -2.30548454354987     -0.13610038023845      0.91816453070032
  C   0.79478590724456     -0.98531365578346     -0.08541569672354
  H   -0.85735910603457     -2.18196034658091      0.63454033356712
  H   1.48888738472097     -1.81025823830369     -0.21641128231833
