21
Coordinates from ORCA-job opt
  C   0.76309786539857      1.10031326238659     -0.34782206363922
  C   1.32261875973586      2.42357398329496     -0.65853972884209
  N   1.63323249032651      0.10159521672615     -0.12093580103166
  N   -0.57629662755081      1.00874895795708     -0.26087873780874
  N   1.40961729064170      3.39722831365445      0.30220986144032
  C   1.90977296138205      2.91302479599330     -1.81698930360717
  C   0.89001879850184      3.27982433359396      1.64883309371145
  C   2.01785410881178      4.50302314602930     -0.22567005150437
  H   1.20347205641303      4.15297350287313      2.21817494531202
  H   -0.19933569018636      3.22530874240318      1.63796129243838
  H   1.28824758988353      2.38455563792584      2.12900198967938
  C   2.33805377495447      4.23014534773905     -1.54514203338182
  H   2.17134330654002      5.38449306488209      0.37722676135319
  H   2.82943469039652      4.90703952032123     -2.22644666132004
  H   2.00867509754296      2.36686702518411     -2.74252194189657
  C   1.10717267801101     -1.09421930246260      0.16651592910330
  C   -0.26296733096387     -1.30025222688381      0.25609943248904
  H   1.81330689931810     -1.90109708593999      0.33844553072009
  C   -1.07515199626068     -0.19462141952583      0.04074950753292
  H   -0.67735646944250     -2.27209088912505      0.49218323282529
  H   -2.15671125345377     -0.26433292702716      0.10884574642630
