21
Coordinates from ORCA-job opt
  C   0.98575689941529      1.04941794449268      0.11251037468042
  C   1.67520015622345      2.33498851348105      0.07852744269120
  N   -0.11426533338628      0.95433215446482      0.88463278676499
  N   1.56826209235085      0.03266935843084     -0.54886039300581
  N   1.04608088302551      3.51027485786313     -0.24982079652394
  C   3.03662031578451      2.60123870695173      0.19960479547732
  C   -0.37568316670494      3.67978883505947     -0.48089126653779
  C   1.96896823030944      4.51635608701312     -0.29903928186930
  H   -0.53574837363132      4.67420322020884     -0.89415592855260
  H   -0.73100517867608      2.93790355722903     -1.19641456133534
  H   -0.93449191401810      3.56845609599639      0.44717631193671
  C   3.21624196784695      3.97985286485652     -0.01510494825722
  H   1.66630467745424      5.52496189584234     -0.53461250752892
  H   4.14266348869813      4.53129339476803      0.02372636324208
  H   3.78941843242359      1.86107023441008      0.42298639986858
  C   -0.69290506588395     -0.24755488629876      0.95561373319231
  C   -0.17174556313512     -1.36120456656189      0.30994508463333
  H   -1.58825040017784     -0.31565670397294      1.56665096458590
  C   0.98417120080860     -1.16320816312755     -0.43458259483348
  H   -0.63877338319394     -2.33452085386482      0.38772976448033
  H   1.46128003446700     -1.98256454724211     -0.96432274310878
