21
Coordinates from ORCA-job opt
  C   0.91276052690455      1.03544284335250     -0.18517158707345
  C   1.54677518848114      2.32144498788289     -0.40732820119417
  N   0.96187326675789      0.16882246900803     -1.21748177833940
  N   0.33143338905030      0.79782791527159      1.00544312980126
  N   1.21990970310982      3.48380578236129      0.25298085018597
  C   2.53974306530444      2.62866001569509     -1.34057336097589
  C   0.20343970062625      3.67438335170644      1.27424621991358
  C   1.98963377265499      4.50173585938993     -0.23402373255437
  H   0.10912240707830      4.74554948519310      1.44650869596135
  H   -0.75313403130871      3.27837074079585      0.93693065469451
  H   0.48013108614521      3.16930135188742      2.19670938368540
  C   2.82471360592249      3.99662121239832     -1.22057400271168
  H   1.87522056449976      5.50240936710699      0.15344496604273
  H   3.55018657835115      4.56581070789847     -1.78060018995005
  H   2.98419520377147      1.91063809062080     -2.01169499919220
  C   0.40299256976344     -1.02402779579875     -1.01954840713336
  C   -0.23016992299736     -1.36705154914460      0.17059907796339
  H   0.45557436291502     -1.72209933210044     -1.85023764984694
  C   -0.24131987686881     -0.39884651490387      1.16395279746504
  H   -0.69099009400151     -2.33579730291328      0.31282012818661
  H   -0.71399206615982     -0.58090068570781      2.12489800507171
