21
Coordinates from ORCA-job opt
  C   0.92725639757674      1.03265707400455     -0.17842259282031
  C   1.56775200754821      2.31712040612755     -0.39598505274970
  N   0.91407081498225      0.19173947489887     -1.23224013642895
  N   0.39437162069029      0.77706892432223      1.03129932698558
  N   1.21633558669200      3.48290117376836      0.24435327590051
  C   2.57251635039226      2.62428147873216     -1.31553843286825
  C   0.18085914446975      3.66703649785693      1.24685978078676
  C   1.98538297300194      4.50361702497723     -0.23788043477879
  H   0.05381814680491      4.73831209072818      1.39563915920027
  H   -0.75965298874561      3.23851426496575      0.90359156509567
  H   0.45752874183201      3.18874398975550      2.18371803683708
  C   2.84355451922477      3.99628738956849     -1.20323296741864
  H   1.85421670962705      5.50699439746283      0.13705418690982
  H   3.57421327928068      4.56650241523447     -1.75540344577796
  H   3.03462525954084      1.90477622364716     -1.97318956029238
  C   0.34731116520431     -0.99832183438102     -1.03578309579346
  C   -0.23692527898808     -1.35939824224115      0.17355597734361
  H   0.35105517872587     -1.67718285234809     -1.88382146103444
  C   -0.19025502944710     -0.41402283665009      1.18802907081627
  H   -0.70589999304476     -2.32444966244649      0.31447888558727
  H   -0.62403360536833     -0.61107539798344      2.16421791450005
