21
Coordinates from ORCA-job opt
  C   0.99102843506919      1.04168828209480      0.09314708135628
  C   1.67229618223802      2.32661746219133      0.04383543453451
  N   -0.17746868245793      0.97413778415363      0.76052429873460
  N   1.64236436545709     -0.00348465404873     -0.45182550742028
  N   1.03573005130559      3.51483793213572     -0.22248927879168
  C   3.04040046756991      2.58485490060527      0.11788036235190
  C   -0.39025251428178      3.71113394372547     -0.40831151077872
  C   1.96322080727699      4.51561326537754     -0.28369604943723
  H   -0.54158796337063      4.71431874948280     -0.80369856470640
  H   -0.78031158636176      2.98528523880403     -1.12128843867426
  H   -0.92374650242911      3.59614957319060      0.53343693323041
  C   3.21890169955815      3.96616542841381     -0.06727150789788
  H   1.65752482287413      5.53145329555185     -0.48148794455615
  H   4.14893173503252      4.51269605141745     -0.05218066487013
  H   3.79528666140461      1.83399016058753      0.29247344516220
  C   -0.75119016343006     -0.22945578980072      0.84112772186385
  C   -0.16335186200002     -1.36971278339781      0.31026688603069
  H   -1.70071572953715     -0.27547939485956      1.36654956575565
  C   1.05908757793885     -1.19736825048854     -0.32798329454882
  H   -0.62953561848309     -2.34279072451435      0.39472132977826
  H   1.59148681662646     -2.03855147062212     -0.76243029711679
