21
Coordinates from ORCA-job opt
  C   0.84049982880038      1.05510592006134     -0.23734255215665
  C   1.43490665427449      2.35371439095984     -0.48818456093428
  N   1.39331127057508      0.02171580133268     -0.90640174729436
  N   -0.19777785019156      0.96389044157252      0.61361661499210
  N   1.24068906766886      3.47972622162210      0.28059095111852
  C   2.30928165602592      2.69428515785109     -1.52446020502312
  C   0.45203383796800      3.61786661440867      1.49456817984857
  C   1.96514813821754      4.50845285134786     -0.25118531129787
  H   0.62766558026113      4.61972168441527      1.88378845436411
  H   -0.60602365293950      3.47706702042586      1.28775858438980
  H   0.75853395376702      2.88165695821575      2.23541730878984
  C   2.63450021201196      4.04958217057656     -1.37677891095753
  H   1.95143916716625      5.48042504616590      0.21751009926974
  H   3.27998582577164      4.64058406465692     -2.00765284147987
  H   2.64498563912944      2.00568060686610     -2.28349770427832
  C   0.85067886285346     -1.17683392707204     -0.70478548719514
  C   -0.21923695559399     -1.38015873266601      0.16141416627231
  H   1.29574829890424     -2.00304379032094     -1.25208257983820
  C   -0.70944452488972     -0.25522232401532      0.80725325470163
  H   -0.64481112052642     -2.36197953105079      0.32217258626862
  H   -1.54401388925422     -0.32013664535339      1.49958170044012
