21
Coordinates from ORCA-job opt
  C   0.63042364536609      1.14566063109367     -0.28294779133637
  C   1.21609978997920      2.44228289426063     -0.58109146176991
  N   1.14171454435204      0.44055326511821      0.74477978795964
  N   -0.32415374297150      0.71345896443371     -1.12977830251811
  N   1.61249585587873      3.34388365822500      0.37780224714247
  C   1.38090749795531      3.04741614516636     -1.82716943978177
  C   1.58140947550552      3.15794354468439      1.81744459974124
  C   2.04737247620519      4.48460868005889     -0.23457929040871
  H   1.76448948312601      4.12552668706730      2.28219923625962
  H   0.60393673738547      2.79170486580958      2.12929652187936
  H   2.33773260308213      2.44198995539238      2.13289163460741
  C   1.92219590916445      4.32440936643117     -1.60734479849553
  H   2.40270672507710      5.31709572565380      0.35299198953212
  H   2.19213009012270      5.05710466932545     -2.35178445142295
  H   1.13092303448863      2.58291310901005     -2.76828674456571
  C   0.61824522678292     -0.76966495017976      0.95869117144752
  C   -0.37111957230231     -1.30588459391316      0.14603965157411
  H   1.02395533996840     -1.32737041676449      1.79786447249719
  C   -0.80556050865501     -0.51052998562604     -0.90802118876883
  H   -0.77824200049373     -2.29342116118113      0.32005830564116
  H   -1.56956261001737     -0.85758105406604     -1.59775614921394
