21
Coordinates from ORCA-job opt
  C   1.01781390248181      1.01717178336264     -0.14354704974239
  C   1.70012747008662      2.29939186220484     -0.34396790358451
  N   0.47804970980408      0.43140440344975     -1.22642972486260
  N   0.92834993555756      0.56275536280229      1.12050094891884
  N   1.17449317200710      3.47337905927695      0.13178086255420
  C   2.82638994137968      2.61031007183431     -1.09572980955380
  C   -0.01242523884473      3.58573515152012      0.95514009834821
  C   1.95787187927850      4.51744946533120     -0.27565407404761
  H   -0.23410054814820      4.64218970612758      1.09484566909237
  H   -0.86107814105906      3.10964122707849      0.46132995651133
  H   0.14659214385454      3.11341522614548      1.92435997415500
  C   2.99772775060344      4.00847106614228     -1.03708496372898
  H   1.71085559046413      5.52944255887555      0.00545357635218
  H   3.78296320605622      4.58870428175160     -1.49583529347153
  H   3.44070855082197      1.89161258993693     -1.61613573715643
  C   -0.14716581031586     -0.73322646918241     -1.02427213670448
  C   -0.27549028628170     -1.29936507259138      0.23732572872042
  H   -0.56838029648430     -1.21105729169555     -1.90381230719157
  C   0.27842511840625     -0.59203633574642      1.29634475268736
  H   -0.79131691911221     -2.23885804313136      0.38903920656925
  H   0.20768886944416     -0.95443060349289      2.31764822613473
