21
Coordinates from ORCA-job opt
  C   0.72910667662258      1.11636909347197     -0.29629954056095
  C   1.32527396218059      2.42083993283494     -0.61985564546529
  N   1.53019557798817      0.20330748978701      0.28157227677697
  N   -0.55594580080566      0.92649631071288     -0.64054996442960
  N   1.49305796913806      3.38671350160928      0.33743752579436
  C   1.72287036733664      2.95335905482371     -1.83837005130740
  C   1.18403629460266      3.21843917075475      1.74227444215548
  C   2.00766114641960      4.51471928146244     -0.24028282964568
  H   1.40590425714759      4.14981050738078      2.25989892799556
  H   0.12625547910059      2.98372266215779      1.87327485395526
  H   1.78570203097619      2.41605310835911      2.17082889449704
  C   2.16426834086506      4.27168641955591     -1.59480943640303
  H   2.21813696781563      5.38914896807736      0.35561804568317
  H   2.55300596517168      4.97109312073713     -2.31833821414679
  H   1.69309150978809      2.43275757253941     -2.78326510290351
  C   0.98902350290141     -0.99314536540301      0.53326892318759
  C   -0.32587031660120     -1.29529561905248      0.20428525735384
  H   1.63771548852965     -1.72585629758796      1.00402658432249
  C   -1.06845454164854     -0.28309349912449     -0.38876106335120
  H   -0.75120458711202     -2.27096747897702      0.40186873322130
  H   -2.10573129041678     -0.43405693411953     -0.67252161672962
