21
Coordinates from ORCA-job opt
  C   0.39284971628164      1.25549549871236     -0.23725873081636
  C   0.89091314913954      2.59360250808297     -0.55060457214671
  N   -0.88213125755154      1.15936702110636      0.18035010628207
  N   1.26636436088224      0.23473135080516     -0.33089911325233
  N   1.96076685620640      3.15040837019001      0.10492133308590
  C   0.34639665412778      3.56904992925940     -1.37995109330193
  C   2.80424550050896      2.48164990687411      1.07640668880049
  C   2.12550755819477      4.44019967498603     -0.31605863030842
  H   2.19250042330056      2.02587724091900      1.85577209441025
  H   3.40349880456538      1.70697539952314      0.59989278262378
  H   3.45537003029014      3.22662438330689      1.53047891283271
  C   1.13830952252845      4.72518184797758     -1.24697609531058
  H   2.92322398982565      5.04761074341539      0.08263028192714
  H   1.01201880292935      5.66556492339586     -1.76034408022920
  H   -0.52424930314623      3.43161163140802     -2.00269941601751
  C   -1.32352111845150     -0.06941531513050      0.46507036568805
  C   -0.50850638099057     -1.19132242829246      0.38474578622376
  H   -2.35868130164056     -0.14531538089329      0.78478072316716
  C   0.80495127210442     -0.97824359816466     -0.01257789396417
  H   -0.87543959586570     -2.17968393038323      0.62995239599625
  H   1.51371231676083     -1.79786877709816     -0.08633184569036
