21
Coordinates from ORCA-job opt
  C   0.48327182067276      1.22084978117673     -0.22787252994460
  C   0.89515829203832      2.60201222050561     -0.51009467032007
  N   -0.38407268249120      1.03285628920381      0.78376913763819
  N   0.95505584004722      0.26301429912269     -1.04396069040619
  N   1.78302269021602      3.26981683579864      0.29314871024055
  C   0.61449712259571      3.41219764724077     -1.60210205169976
  C   2.37572287572827      2.73320760657642      1.50094265926141
  C   2.05698504519787      4.49309368427965     -0.25322448637243
  H   2.91140325136969      3.53311399680406      2.00886355529927
  H   1.59648093524176      2.35014115112530      2.15954450254453
  H   3.07584491072728      1.92990007161296      1.26332836183991
  C   1.33649910262348      4.61207318214077     -1.43042847198045
  H   2.73364899400444      5.17418693961011      0.23913758377257
  H   1.33240000431515      5.47302035339023     -2.08039711088622
  H   -0.04716171656026      3.15139657425519     -2.41382875628144
  C   -0.79283489873736     -0.22222259203688      0.99565081125403
  C   -0.37242583560682     -1.28233236143492      0.20301607587385
  H   -1.48681660618846     -0.37039237107812      1.81770145396122
  C   0.51599296819675     -0.98039598803710     -0.82054125175705
  H   -0.72023219394281     -2.29301083253398      0.37415199920135
  H   0.89565908055218     -1.75042548772198     -1.48550383123866
