21
Coordinates from ORCA-job opt
  C   0.97075031573264      1.02388564533373     -0.16066023104337
  C   1.62942457235117      2.30580079416485     -0.36481788291992
  N   0.77133198331687      0.26734784469950     -1.25673911561472
  N   0.58056407462022      0.70962330270124      1.08966432638417
  N   1.20310370179555      3.47872496376327      0.21061776912849
  C   2.67117673682639      2.61534643409757     -1.23783102896626
  C   0.11750403108269      3.63734098965808      1.16086278422687
  C   1.96942847836248      4.50941299135107     -0.25498183934132
  H   -0.09062154427913      4.70193292022965      1.25550034783402
  H   -0.77710681861983      3.13118450980961      0.79923741160983
  H   0.38576109952342      3.22161878300811      2.13027755402387
  C   2.89723713865677      3.99940168427240     -1.15154326230371
  H   1.78808411093982      5.51856353676566      0.08141317414932
  H   3.64236037260741      4.57434067860490     -1.67886743014578
  H   3.18934947525158      1.89420040939509     -1.85084260935331
  C   0.17842921833804     -0.91271964053202     -1.06394435343962
  C   -0.25821420556178     -1.33436301383162      0.18632967689065
  H   0.03498987644553     -1.52744873713674     -1.94786238451966
  C   -0.03815941383514     -0.46418893230481      1.24537434236969
  H   -0.75115696951854     -2.28774546231812      0.32569356397667
  H   -0.35613523403615     -0.71015870173145      2.25441918705409
