18
Coordinates from ORCA-job mp2_opt
  O   -3.03205894042731     -0.76088835936116     -0.00051355441390
  C   -1.90028376365585      1.14517608936275      0.00049042907640
  H   -1.66637938726821      2.19583782694224      0.00106545824643
  C   -1.01882640392364      0.03361867808776      0.00005193852944
  N   -1.70271146734661     -1.10775301913314     -0.00058005956503
  C   0.44655995309342      0.01578410782498      0.00005538526408
  C   1.14296962085937     -1.19942791714223      0.00030466994495
  C   1.16660901553769      1.21507358920614     -0.00022050280413
  C   2.53286560197021     -1.20716188777262      0.00024824863638
  H   0.58497300011954     -2.12840888354847      0.00053091639214
  C   2.55821433959407      1.20120952085104     -0.00026675853353
  H   0.64210452584717      2.16371742187430     -0.00049126918084
  C   3.24719765471599     -0.00921409908579     -0.00002493649125
  H   3.06241426250384     -2.15321227968586      0.00044169329692
  H   3.10430506343573      2.13775149087963     -0.00049243348565
  H   4.33105619051531     -0.01959406812104     -0.00007059609033
  C   -3.13716930294428      0.58114517680579      0.00013985170550
  H   -4.14195596262642      0.97176061201567      0.00026751947243
