27
Coordinates from ORCA-job mp2_opt
  C   1.29006453904800      2.29275209470367     -0.00470280763625
  C   2.17425050224119      0.04669701651929     -0.24396588062056
  C   0.94111626423907     -0.48231140021945      0.18120167866178
  C   -0.16980569472364      0.45916499860846      0.23666669498562
  H   4.21902140381107     -0.36945574842126     -0.77917387811869
  C   3.28545688876593     -0.78792763126073     -0.41697439281560
  C   0.89684535946041     -1.82877129949248      0.58795912784509
  C   2.00947163938030     -2.64230232129791      0.45573863432188
  C   3.19579090702581     -2.12760517671186     -0.08077883447152
  H   -0.00262527255594     -2.21797676005703      1.04589581802071
  H   1.96293701608251     -3.67638100574850      0.77528951301495
  H   4.06122648326875     -2.76876903061502     -0.20218074450611
  C   -1.58999725409989      0.02509542366918      0.16547126192557
  C   -2.58822308037965      0.99756335587244      0.33463561025999
  C   -1.96866198398266     -1.24560029168226     -0.29362679001337
  C   -3.92596999021271      0.68082571746102      0.14380718006257
  H   -2.29114437394984      1.99490970117009      0.63414853385485
  C   -3.31212545376445     -1.55475312357583     -0.49284149308212
  H   -1.22231929570998     -1.98097340135956     -0.55817555813254
  C   -4.29804873317705     -0.60057896437356     -0.26240158971666
  H   -4.68217563849459      1.44228755943470      0.29741720094707
  H   -3.58341905754672     -2.54158356847833     -0.85054372935655
  H   -5.34287248527400     -0.84485060129503     -0.41649130149260
  N   2.25958483006876      1.40202749780295     -0.44622010087463
  H   3.15828316694888      1.81801922131990     -0.65929609370934
  N   0.01852229003743      1.74727305389718      0.16910984733131
  O   1.53117202349297      3.47685768412994      0.13319109331515
