27
Coordinates from ORCA-job mp2_opt
  C   1.36098885483802      2.28189107980973      0.10947151100801
  C   2.20969058430206     -0.00341886322958      0.14528474018766
  C   0.91557421305862     -0.48764354445588     -0.11694965581747
  C   -0.15418544784818      0.49464314824031     -0.07136966757637
  H   4.29279590958775     -0.49400271851127      0.40156559106801
  C   3.30278619802558     -0.87771811937488      0.17719488363726
  C   0.75407039085063     -1.84378773369470     -0.45244558205949
  C   1.84214052620517     -2.69946183231131     -0.44883149409381
  C   3.11357609264052     -2.21832339517845     -0.11126577904033
  H   -0.22454442121314     -2.20760426322387     -0.73853410563432
  H   1.71081012319966     -3.74192889748650     -0.71273265678419
  H   3.96252466973066     -2.89228831803851     -0.09708317262390
  C   -1.57404101198505      0.07940403352831     -0.04875038121098
  C   -2.53194742558340      0.92432197665826     -0.62296178797995
  C   -1.99559038260996     -1.05796527238017      0.65284328160249
  C   -3.88180630585664      0.60319364564487     -0.54985597062714
  H   -2.19693082051544      1.82410317064332     -1.12536463352604
  C   -3.35125614527521     -1.36268123696043      0.74084663597933
  H   -1.27143764217117     -1.67590191610424      1.17044394864961
  C   -4.29659225422330     -0.54276899820499      0.12867752215772
  H   -4.61444744176785      1.25376062821526     -1.01368295156797
  H   -3.66901015857593     -2.23674126074847      1.29785256831571
  H   -5.35086810937100     -0.78687742125360      0.19186169177946
  N   2.36071546560412      1.34605339860482      0.34042763341256
  H   3.28823108180459      1.73418200457933      0.46359077810127
  N   0.06009721576200      1.77740618345893      0.01774191744601
  O   1.61449024138690      3.46997552177372      0.04960413519689
