27
Coordinates from ORCA-job mp2_opt
  C   1.59222151525673      2.21955125960911      0.00337544581724
  C   2.20574980531763     -0.15256268341469     -0.00035891907762
  C   0.84536609691923     -0.49858055915316     -0.00045003423148
  C   -0.09827038273434      0.59772755131644      0.00073509927020
  H   4.23742116910893     -0.87823881093493     -0.00146039306371
  C   3.18693437307498     -1.15077793347306     -0.00139270479406
  C   0.47133409593422     -1.85227590472862     -0.00101584354382
  C   1.44501255727344     -2.83586563188317     -0.00185013950390
  C   2.80133682230573     -2.48101470769218     -0.00219477828500
  H   -0.58232665468116     -2.10828337934279     -0.00054872020240
  H   1.16093667615926     -3.88125831721727     -0.00218394141035
  H   3.56145225993044     -3.25413547992526     -0.00290856234924
  C   -1.54637261831513      0.27394603936582      0.00055231433953
  C   -2.22751016334129      0.12042208927530      1.20944438505075
  C   -2.22314371458169      0.10280113222106     -1.20849382807219
  C   -3.58315591432589     -0.19960778836931      1.20721177281274
  H   -1.69659410073474      0.26112354032943      2.14524591940376
  C   -3.57888102437347     -0.21677686964224     -1.20659713382491
  H   -1.68881918716792      0.22961555393739     -2.14436778362944
  C   -4.25928596005997     -0.37043268654550      0.00026991896243
  H   -4.11163722384166     -0.31187033937381      2.14712298064157
  H   -4.10405282387666     -0.34225786281627     -2.14669526387824
  H   -5.31453819646275     -0.61777762042727      0.00016027029604
  N   2.51665802813920      1.18274674055393      0.00101679288850
  H   3.48582504480561      1.47762182448948      0.00113082765604
  N   0.23478877076634      1.85459443437637      0.00325117754900
  O   1.95680474950495      3.37930040946519      0.00562114117852
