27
Coordinates from ORCA-job mp2_opt
  C   1.42673851531668      2.26658037184935     -0.15561167904253
  C   2.21831313877452     -0.04463187717295     -0.07478030269887
  C   0.89441260034147     -0.49249994161689      0.07712308812891
  C   -0.13823223285751      0.52228198735249     -0.01881783846379
  H   4.30059200279483     -0.59618018696256     -0.16544641648877
  C   3.28375420952716     -0.95192214771310     -0.03397994927247
  C   0.65889065305603     -1.85370930251532      0.33716426490685
  C   1.71675388887787     -2.74459287711398      0.39418815984327
  C   3.02796356730446     -2.29330801985041      0.19321742575243
  H   -0.35521274023962     -2.19341715330608      0.50833097547414
  H   1.53119897982180     -3.79243991338568      0.59751643501316
  H   3.85392964833405     -2.99458444553389      0.22992245545084
  C   -1.56553306315307      0.13554416803656     -0.01392390524175
  C   -2.04652867852932     -0.86510110627198     -0.86630853325142
  C   -2.45662678568809      0.83339139507597      0.80697336135341
  C   -3.40530987321168     -1.16744471741481     -0.88851583900977
  H   -1.36283853444163     -1.37957911075939     -1.53323193864376
  C   -3.80955127543266      0.51104543267160      0.79769603640507
  H   -2.07493839201738      1.62628567683724      1.44016827345358
  C   -4.28727940475608     -0.48816568001630     -0.04989181283184
  H   -3.77597825369847     -1.92931220081792     -1.56483836794411
  H   -4.49475259542373      1.04695288487564      1.44476406104224
  H   -5.34390121846880     -0.72996504558760     -0.06332711571253
  N   2.42002158904652      1.30069298798693     -0.24520346356718
  H   3.36276896525061      1.66420056888012     -0.31719934302289
  N   0.10715603007194      1.79891406000234     -0.10696202340489
  O   1.70524125940010      3.45033819247061     -0.15594600822735
