27
Coordinates from ORCA-job mp2_opt
  C   1.44006322479265      2.26215207132961     -0.16063434727494
  C   2.21991301670008     -0.05378517544313     -0.05585384696022
  C   0.89105718423801     -0.49470983896464      0.06735324151465
  C   -0.13390144432372      0.52610311907391     -0.03501263992175
  H   4.30024889728020     -0.61822305956522     -0.10757175542783
  C   3.27851388356741     -0.96815586119098     -0.00116437391791
  C   0.63974047192144     -1.85783172482561      0.29953425717456
  C   1.69029224901394     -2.75663340150244      0.36630746699961
  C   3.00865291837532     -2.31056565566027      0.20324757421023
  H   -0.38115803596708     -2.19244918198500      0.43847071766997
  H   1.49375094198999     -3.80657402324113      0.54705933074501
  H   3.82901711331490     -3.01784514965274      0.24886320533887
  C   -1.56202549882984      0.14166479757196     -0.01644767806028
  C   -2.06570757560834     -0.79473409929926     -0.92609805116606
  C   -2.43113432992313      0.78538420691093      0.86876795402044
  C   -3.42540986079834     -1.09349252114858     -0.93706890101978
  H   -1.39677329458639     -1.26673457636997     -1.63823768324367
  C   -3.78535546332745      0.46700615312720      0.86859791357802
  H   -2.03360634206379      1.53391790642926      1.54492447680526
  C   -4.28554299262369     -0.47114980087721     -0.03382857941569
  H   -3.81429419293034     -1.80642351598952     -1.65518242052115
  H   -4.45408041427037      0.96001282102005      1.56504495264684
  H   -5.34300328104569     -0.70932428957088     -0.03941070033047
  N   2.43124397143201      1.29137896567181     -0.21532068980955
  H   3.37662890302022      1.65064425695940     -0.27262059839137
  N   0.11673442703421      1.80144552125149     -0.12100745174209
  O   1.72354052361779      3.44457705594095     -0.17600937350071
