27
Coordinates from ORCA-job mp2_opt
  C   1.32975737700339      2.28837205554390     -0.00496787211196
  C   2.19290465254106      0.03218171776775     -0.21907105238003
  C   0.93180461268304     -0.48366354791602      0.13716234008986
  C   -0.16787886645674      0.47370503660137      0.13859647209586
  H   4.25587458794434     -0.40620173382840     -0.65589909132330
  C   3.30011466996789     -0.81581349318602     -0.34527774005792
  C   0.85215299536061     -1.83245985464789      0.53152207370133
  C   1.95946966626827     -2.65943136951506      0.44701668566021
  C   3.17696643271339     -2.15696756296462     -0.02675758214168
  H   -0.07182943030190     -2.21390099636233      0.94375079689014
  H   1.88391932772461     -3.69489894856199      0.75621332421490
  H   4.03894173598402     -2.80855688547710     -0.11173321652251
  C   -1.58976590757559      0.06939868451514     -0.00833508877396
  C   -1.99471803341982     -1.22586013270042     -0.36146435678313
  C   -2.57537271455842      1.02279062143616      0.29355070183993
  C   -3.34805165636756     -1.54184156368595     -0.45244391404895
  H   -1.26618227669096     -1.96491639660104     -0.66373203004719
  C   -3.92245927827429      0.69743012415031      0.21244909474708
  H   -2.25881208609801      2.01579444410346      0.58752134023607
  C   -4.31750808679335     -0.58880458402655     -0.15463414070264
  H   -3.64237979026825     -2.54007935623048     -0.75612600366941
  H   -4.66879143718820      1.44788926083825      0.44675770464977
  H   -5.36975631883535     -0.84158098942517     -0.21688948997659
  N   2.30910680370278      1.38783336553455     -0.40198459107828
  H   3.22426870273054      1.79182860420785     -0.56137405033017
  N   0.04288355283388      1.75969603572505      0.08571391597101
  O   1.57991376537058      3.46690146470528      0.16127676985156
