27
Coordinates from ORCA-job mp2_opt
  C   1.47284306988528      2.25246784650663     -0.15897323001141
  C   2.22032966569154     -0.07496425574419     -0.02333774850632
  C   0.88237437676709     -0.49794719276306      0.04267384350308
  C   -0.12449327781408      0.53820486087351     -0.06161366140320
  H   4.29230356617071     -0.67262369374273     -0.00485861232179
  C   3.26159614533838     -1.00750455067720      0.05197698617316
  C   0.59800712541341     -1.86306358700285      0.21497325056598
  C   1.63092331074042     -2.78084225308262      0.29581936919070
  C   2.96187443737481     -2.35047469457292      0.20648913798771
  H   -0.43467434460723     -2.18262324757573      0.29159420585253
  H   1.41161520828840     -3.83332286060021      0.42937818578349
  H   3.76875463675334     -3.07214073042247      0.26560800010004
  C   -1.55587411131453      0.16218950735711     -0.02651896646684
  C   -2.11144502831657     -0.61564534832383     -1.04694178907079
  C   -2.37189640108682      0.65834830102266      0.99274735190706
  C   -3.47213504882291     -0.91032960630151     -1.03456047934558
  H   -1.47950655441282     -0.97589693885524     -1.85248170269767
  C   -3.72783546702836      0.34520965340788      1.01131315401487
  H   -1.93624401661318      1.29040446939165      1.75883754208385
  C   -4.28022191736893     -0.43733126497393     -0.00178568000846
  H   -3.90279805490449     -1.50187551884841     -1.83446407473249
  H   -4.35686622241630      0.72315533576010      1.80918772845062
  H   -5.33868131795376     -0.67064873497423      0.00896291780167
  N   2.45398961746047      1.26967536212567     -0.15164156035328
  H   3.40486408386559      1.61749545190114     -0.18301102470423
  N   0.14110338926344      1.81057699117752     -0.13590476555794
  O   1.77195012964709      3.43047669893727     -0.19812637823477
