27
Coordinates from ORCA-job mp2_opt
  C   1.57496313173790      2.22574904347146      0.04770069203355
  C   2.20898771393529     -0.14048743504063      0.00547715130411
  C   0.85165064415940     -0.49785457398164     -0.01465489584729
  C   -0.10160350311879      0.58976107879119      0.01435654072962
  H   4.24686430042485     -0.84843934427257      0.00245383476569
  C   3.19888074405366     -1.12984242235972     -0.01514551069495
  C   0.48976870003510     -1.85393623077023     -0.06325608037382
  C   1.47196817995917     -2.82874298669892     -0.08650529430936
  C   2.82504475197219     -2.46266734772645     -0.06048467531929
  H   -0.56145916180350     -2.11878176848040     -0.08328986301613
  H   1.19705808237307     -3.87588513053065     -0.12474070392268
  H   3.59187055028589     -3.22894326332384     -0.07718646721101
  C   -1.54726483989377      0.25557809755049      0.00795654535326
  C   -2.20072824707427     -0.03470054515093      1.20734774225440
  C   -2.25472475789293      0.23137079469106     -1.19501815953738
  C   -3.55741199740341     -0.34958662689999      1.20135672268428
  H   -1.64743313933353     -0.00446221158260      2.14041650981376
  C   -3.61045991062352     -0.08827084377186     -1.19737472595594
  H   -1.74322627784179      0.47002576600844     -2.12162709656288
  C   -4.26273920523467     -0.38015363971228     -0.00055159417253
  H   -4.06412299234120     -0.56641956420845      2.13495048905961
  H   -4.15847578876757     -0.10317195920218     -2.13264283765275
  H   -5.31852278989656     -0.62513805793142     -0.00392732827471
  N   2.50823073418848      1.19692322019552      0.04338510301174
  H   3.47477305448012      1.50001946703549      0.05591857111102
  N   0.22073134334975      1.84926695762736      0.03714741426151
  O   1.92977068027065      3.38839852627374      0.06420191646816
