27
Coordinates from ORCA-job mp2_opt
  C   1.34213674483284      2.28595994436111      0.09192955013057
  C   2.20458556106700      0.00927972156456      0.16726051318355
  C   0.92214742157796     -0.48528800693464     -0.13177781612649
  C   -0.15842249408771      0.48692276692304     -0.10518920602904
  H   4.28327689041882     -0.46478104020191      0.48295899958181
  C   3.30383093971865     -0.85589240515591      0.22712586168868
  C   0.78525908832009     -1.83902355658917     -0.48802348298207
  C   1.88072275678820     -2.68483032689829     -0.46003287618353
  C   3.13609139718976     -2.19589606006527     -0.07727530624259
  H   -0.17928412594252     -2.20863459378342     -0.81166050347446
  H   1.76760135479503     -3.72519420621359     -0.74020471418065
  H   3.99039405204956     -2.86230178633271     -0.04245774035057
  C   -1.57680579372693      0.06368754735671     -0.07360304184660
  C   -2.55028800332300      0.94089550003849     -0.56954547819204
  C   -1.98349258310479     -1.10477095513973      0.58534281225499
  C   -3.89830558293286      0.62023273709439     -0.47145322035046
  H   -2.22747772043896      1.86470228349257     -1.03469663921577
  C   -3.33718129167892     -1.41071413059923      0.69794267002135
  H   -1.24964744429848     -1.74740849344268      1.05612744852714
  C   -4.29763397253507     -0.55889806940315      0.15777912726575
  H   -4.64175806884049      1.29727503301444     -0.87639583629482
  H   -3.64092759797384     -2.31083352070582      1.22023665420486
  H   -5.35050652935580     -0.80343362302820      0.24031372209524
  N   2.33977599148135      1.35997630955079      0.36817319931107
  H   3.26176902388162      1.75516745391551      0.50909577145578
  N   0.04735646678848      1.77105224606461     -0.01588830366315
  O   1.58979951932999      3.47425123111749      0.01540783541143
