27
Coordinates from ORCA-job mp2_opt
  C   1.29938413682967      2.29335908106903     -0.02785033902232
  C   2.18291283261734      0.03987686208274     -0.22434736451086
  C   0.93757678167098     -0.48118993030752      0.17324481827630
  C   -0.16759272572160      0.46635525954869      0.20606128792102
  H   4.23685524493861     -0.39062162351365     -0.71206911123551
  C   3.29198768520689     -0.80229691328104     -0.37216805235543
  C   0.87118226241006     -1.82922774148869      0.57097609660432
  C   1.98044249741919     -2.65058028551572      0.46219596111392
  C   3.18375237561113     -2.14211682305331     -0.04183836452576
  H   -0.04517937999791     -2.21375070698873      0.99885248622184
  H   1.91809604378993     -3.68621558525621      0.77384776719303
  H   4.04697382747521     -2.78952317636029     -0.14457637189798
  C   -1.58599706934347      0.03160706313541      0.14530674317716
  C   -2.58457984129114      0.98508398233929      0.39611926421334
  C   -1.96562964365436     -1.21791775018380     -0.36694338482722
  C   -3.92484869151943      0.66671093634711      0.22500481161554
  H   -2.28539915045142      1.96766281752127      0.73962128914470
  C   -3.31153384816719     -1.52738417744503     -0.54738605831605
  H   -1.21795341536508     -1.93114438257551     -0.68546221165899
  C   -4.29743814178168     -0.59457633615952     -0.23981258447191
  H   -4.68297197715642      1.41059244435665      0.44179399609041
  H   -3.58613637420454     -2.49612127301691     -0.94923238673624
  H   -5.34422203295107     -0.83959374822788     -0.37857024886458
  N   2.27947829124842      1.39411084220398     -0.42709984026531
  H   3.18366876555648      1.80580223178956     -0.62461395531226
  N   0.02241231520312      1.75379338162752      0.12873336336098
  O   1.53942323162831      3.47959055135257      0.09355238906784
