27
Coordinates from ORCA-job mp2_opt
  C   1.36816464664156      2.28556423798929     -0.07913615283540
  C   2.20541205059405      0.00258585430572     -0.16945793356233
  C   0.91420332764769     -0.48260898993508      0.10997412167243
  C   -0.15786280395984      0.50014330428000      0.06411985509645
  H   4.28345992149557     -0.48586875451722     -0.46316534283979
  C   3.29858466229351     -0.87102697264254     -0.21930267549491
  C   0.76744204839879     -1.83420103235457      0.47229012941297
  C   1.85713418030709     -2.68779822974256      0.45658209252849
  C   3.11909210681027     -2.20978535426209      0.08269314060788
  H   -0.19963460773722     -2.19676428520442      0.79493449305037
  H   1.73381326255583     -3.72591088610457      0.74090977619165
  H   3.96888227752944     -2.88231517961167      0.05577429999202
  C   -1.58197649023945      0.10337364117206     -0.02455199572519
  C   -1.99514270502988     -1.12078362046952     -0.56748716145061
  C   -2.54703981723788      0.98419894743442      0.48362828566873
  C   -3.34897108144139     -1.44145262934789     -0.62320122231765
  H   -1.27173595390171     -1.78811666902826     -1.01878297938386
  C   -3.89443784640167      0.64941272356380      0.44216022710763
  H   -2.21687329726648      1.92676012877036      0.90368144790458
  C   -4.30145490167260     -0.56667356995240     -0.10620118581646
  H   -3.65848627884610     -2.37916625658733     -1.07080719096321
  H   -4.63048245747581      1.33658562096901      0.84362777474998
  H   -5.35370016580971     -0.82510182294349     -0.14010494968286
  N   2.35813014259792      1.35294776662717     -0.35966813312774
  H   3.28686858122725      1.73853603346122     -0.48172350608072
  N   0.06718923079342      1.78257171904988     -0.01132296315387
  O   1.62806196812736      3.46900827508069      0.02753474845140
