27
Coordinates from ORCA-job mp2_opt
  C   1.51869699529987      2.23830161360820     -0.12001148016422
  C   2.21692858177284     -0.10666842852837     -0.00807883127896
  C   0.86980827646876     -0.50116726359770      0.02599430383355
  C   -0.11344731888818      0.55769023243193     -0.05309361295967
  H   4.27432948371662     -0.75384427090608      0.02564341322710
  C   3.23506723543542     -1.06512082401256      0.05519428276823
  C   0.54851983836321     -1.86378852099165      0.14034245611971
  C   1.55863260796945     -2.80768329097564      0.20706790151792
  C   2.90062802974351     -2.40494488727655      0.16007496881819
  H   -0.49398902142332     -2.15876299897688      0.17909109352296
  H   1.31379219798770     -3.85925847779732      0.29622901661340
  H   3.68944939569383     -3.14710245810080      0.20970320381268
  C   -1.55130057150416      0.19827213348790     -0.02488374800212
  C   -2.15879537029330     -0.36217737452904     -1.15130156967104
  C   -2.31238934420936      0.47358907058704      1.11265804563940
  C   -3.51974022284196     -0.65679114275307     -1.13320053233568
  H   -1.56639746593432     -0.55714999597784     -2.03965621800424
  C   -3.67007957969420      0.16522675475835      1.13132233294829
  H   -1.83727453882020      0.93428864490609      1.97223668782917
  C   -4.27546975303623     -0.39860980017232      0.00939071300241
  H   -3.99113147539038     -1.08132567069773     -2.01241660192015
  H   -4.25793310535095      0.37512426104998      2.01763055560546
  H   -5.33436549723995     -0.62979573421324      0.02297151866376
  N   2.47959911943742      1.23586642775987     -0.09738869648860
  H   3.43754016811219      1.56482845844904     -0.11539825474381
  N   0.17603564694849      1.82512172996358     -0.10520256761112
  O   1.84213368767723      3.40973081250480     -0.15815338074261
