27
Coordinates from ORCA-job mp2_opt
  C   1.38091486536550      2.28316513620420     -0.09922680175891
  C   2.20853381966937     -0.00710332855392     -0.15186091656942
  C   0.90895832941663     -0.48338484126138      0.10106362834179
  C   -0.15413558136737      0.50710229850898      0.04188759200433
  H   4.28954596482798     -0.50967441717944     -0.39865741876689
  C   3.29654300866780     -0.88802928059516     -0.17832795178439
  C   0.74171867602515     -1.83652131615263      0.44740135234826
  C   1.82515871496509     -2.69807789430783      0.45184018750989
  C   3.09976653928404     -2.22661725320674      0.11355816014326
  H   -0.23727954114059     -2.19398842999591      0.73887674468570
  H   1.68727256068791     -3.73762884105948      0.72392935180387
  H   3.94504046392508     -2.90529472247514      0.10412660751652
  C   -1.57891151682512      0.11278813802228     -0.02622055800725
  C   -2.00040903180258     -1.07848800843707     -0.63153430423280
  C   -2.53276082717714      0.96430539445823      0.54678522186093
  C   -3.35460030316341     -1.39860879070089     -0.67763614064140
  H   -1.28202774924976     -1.71956697092338     -1.12784775050508
  C   -3.88050504118083      0.62843881809754      0.51570552463622
  H   -2.19515092058337      1.88485427945738      1.00808264285528
  C   -4.29677023372720     -0.55565998131907     -0.09251980752675
  H   -3.67296017343886     -2.30974123977231     -1.17145152060185
  H   -4.60934111510612      1.29050062595003      0.96918666213373
  H   -5.34923336095756     -0.81392573913153     -0.11946340307011
  N   2.37244860869224      1.34172931442574     -0.34197298430303
  H   3.30491733612258      1.72195106743819     -0.45185127871944
  N   0.07557793014472      1.78832092209448     -0.03746270762906
  O   1.64479857792585      3.46734806041483     -0.01215113172338
