27
Coordinates from ORCA-job mp2_opt
  C   1.41423283684371      2.27162537221819      0.14583790970873
  C   2.21644401888113     -0.03478601694634      0.09324550503623
  C   0.89770222094220     -0.48993599938042     -0.08287861171903
  C   -0.14251715274760      0.51893271038695      0.00634111688721
  H   4.30013765690230     -0.57302249358259      0.21875772859021
  C   3.28844425479558     -0.93494675716417      0.06605312770118
  C   0.67844551701147     -1.84950632026341     -0.36634348594207
  C   1.74339542407113     -2.73251722413891     -0.41347798227727
  C   3.04699921197026     -2.27564803313235     -0.17938076102085
  H   -0.32822350740537     -2.19453925874197     -0.56666897476721
  H   1.56903692859130     -3.77846167216390     -0.63570295724433
  H   3.87842518750681     -2.97084786481510     -0.20725233672848
  C   -1.56914966508204      0.13029274410604      0.01709739333696
  C   -2.03161228142898     -0.92799766573628      0.80856942753554
  C   -2.47847795737757      0.87486303187211     -0.74155243608949
  C   -3.38904836336297     -1.23588487284330      0.83641383501913
  H   -1.33696632063768     -1.47927750379782      1.43287190450641
  C   -3.82981038988054      0.54769936161209     -0.72763881871449
  H   -2.10979820174184      1.70689517555292     -1.33047953180593
  C   -4.28871391139261     -0.50755048800075      0.06040224315795
  H   -3.74436512730821     -2.04237281370219      1.46777930799418
  H   -4.52823062627752      1.12097758084396     -1.32677722110939
  H   -5.34409951031193     -0.75459611526453      0.07720075375211
  N   2.40885980544558      1.31110209929323      0.27058211283583
  H   3.34914022040882      1.67893521678151      0.35216543067703
  N   0.09834444279293      1.79686577326636      0.09389113913314
  O   1.68821728879165      3.45637103374066      0.12636218154670
