27
Coordinates from ORCA-job mp2_opt
  C   1.40413548475437      2.26959539630280      0.13814956224125
  C   2.21596888318776     -0.03326101936070      0.09989839314666
  C   0.90128519697185     -0.49382397718150     -0.09142664094539
  C   -0.14432819953723      0.51035193930543     -0.01222413054153
  H   4.30026280691060     -0.56282359576639      0.24897056544266
  C   3.29197959474869     -0.92890383556170      0.08416927128740
  C   0.69146891811294     -1.85358154687728     -0.38126019395216
  C   1.76067351279663     -2.73193386248651     -0.41788634009489
  C   3.05934634829473     -2.27013833333691     -0.16668830992361
  H   -0.31096707621662     -2.20237084627436     -0.59559791193221
  H   1.59351307704842     -3.77794032083263     -0.64521210793360
  H   3.89407004066038     -2.96163189187243     -0.18620959296422
  C   -1.56945147658547      0.11613883734669     -0.00498837855003
  C   -2.48725055109047      0.88327551458342     -0.73065532803319
  C   -2.02750804138887     -0.94782259406301      0.78178551705955
  C   -3.83999769155829      0.56389452021993     -0.70135904195286
  H   -2.12285549592769      1.72467331526243     -1.30871609816931
  C   -3.38622893610362     -1.24825704471857      0.82527349735818
  H   -1.32810517395751     -1.51085196556148      1.38986580307641
  C   -4.29326908171959     -0.50237450263017      0.07513534486252
  H   -4.54430027362333      1.15320523040070     -1.27758471025360
  H   -3.73683520316895     -2.06122325859242      1.45091047027761
  H   -5.34979750465795     -0.74325773584745      0.10442747222273
  N   2.40087303933877      1.31343968138151      0.27912858339084
  H   3.33873223292975      1.68516557260865      0.37021437640761
  N   0.09096973992623      1.78936152025460      0.07570270783451
  O   1.67382882985447      3.45536680329735      0.11620722063867
