27
Coordinates from ORCA-job mp2_opt
  C   1.36337682581315      2.28971442765940      0.09111022880494
  C   2.20585690480279      0.00438153128798      0.16377923222148
  C   0.91317107480727     -0.48394339658733     -0.10739673548785
  C   -0.15787147151773      0.49879175250546     -0.06210057178460
  H   4.28396094225831     -0.48262356333660      0.44698153004276
  C   3.29907098256156     -0.87012689954253      0.21035496665587
  C   0.76731884923109     -1.83647196454120     -0.46448106405782
  C   1.85611694083942     -2.69064848631974     -0.45168560977949
  C   3.11912959087621     -2.20941282425972     -0.08488174265092
  H   -0.19948852948143     -2.20035418464213     -0.78398349806626
  H   1.73186111575443     -3.72848242659902     -0.73239624685182
  H   3.96953931896437     -2.87992959071943     -0.06007723369619
  C   -1.58099390246889      0.10226575815132      0.02617669591044
  C   -1.99611546448729     -1.12080457864118      0.56865470502312
  C   -2.54532560123207      0.98261898063024     -0.48475302810273
  C   -3.35009793537204     -1.44093541682354      0.62210744375317
  H   -1.27630660291577     -1.78851309680824      1.02312243337289
  C   -3.89266565545455      0.64903067308305     -0.44625553469247
  H   -2.21224506871030      1.92355775418769     -0.90423563901281
  C   -4.30118833319165     -0.56638885371297      0.10249935532045
  H   -3.65999159414701     -2.37704955187149      1.07038874920054
  H   -4.62662023794680      1.33605155729680     -0.84912075533833
  H   -5.35266496112078     -0.82440421091906      0.13414083183468
  N   2.36085831168896      1.35369025600758      0.34484469013457
  H   3.28755913468991      1.73965695930228      0.47883778159283
  N   0.06892480077022      1.78041464436200      0.01137483435886
  O   1.62479556498861      3.47392975085039     -0.00691681870530
