27
Coordinates from ORCA-job mp2_opt
  C   1.51506744477645      2.23788988169981      0.15064371499294
  C   2.21238331723332     -0.10470982096911      0.02768325837299
  C   0.86599610891731     -0.50095097318176     -0.04096027850443
  C   -0.11916016500463      0.55629087598810      0.07244305051660
  H   4.27241461477923     -0.74106200395080      0.01193579433610
  C   3.23587151411370     -1.05664352130490     -0.04943562024577
  C   0.55785319605796     -1.85921613031608     -0.22829809584426
  C   1.57340529633487     -2.79572831744300     -0.31388849895264
  C   2.91191114460869     -2.39251447119838     -0.21449287240451
  H   -0.47942308737814     -2.15998143639829     -0.31452658824791
  H   1.33393734956351     -3.84224686172845     -0.45916342052518
  H   3.70513367411076     -3.12896770512490     -0.27580008275990
  C   -1.55883434837411      0.21489054850908      0.05748519328370
  C   -2.37692290720992      0.74797301194052     -0.94174715296036
  C   -2.10358381139708     -0.64185419414256      1.01930097898542
  C   -3.73003976838688      0.42458390105587     -0.97811699329310
  H   -1.94491345159059      1.42080158437666     -1.67437799490891
  C   -3.46178754497372     -0.94641275871171      0.99036055038042
  H   -1.46781642449645     -1.04699587412688      1.79995960036864
  C   -4.27500111143549     -0.42067900629429     -0.01248671658715
  H   -4.36130318754171      0.83671531673985     -1.75711203001047
  H   -3.88529433694847     -1.59294140613423      1.75056641518618
  H   -5.33092366865887     -0.66422204673515     -0.03782945182127
  N   2.47466268529163      1.23439538033690      0.15854480322123
  H   3.43291739674274      1.56179262733760      0.18523544257957
  N   0.17536544689834      1.82296221633937      0.14235565105977
  O   1.83887462396755      3.40988918343674      0.17011634378230
