27
Coordinates from ORCA-job mp2_opt
  C   1.28428683185969      2.29129594371997     -0.02410641393861
  C   2.16634552526807      0.05312669153051      0.26142110369909
  C   0.94404083807959     -0.48425074752139     -0.18534400235106
  C   -0.17170721902058      0.45216060759123     -0.26086651343270
  H   4.20241785887292     -0.34786780011934      0.83797960125963
  C   3.27921924467771     -0.77393147796468      0.45840354737966
  C   0.92041200455717     -1.83024343291466     -0.59586435815338
  C   2.03584701693053     -2.63619921440225     -0.44129866902220
  C   3.20649091309343     -2.11433235929084      0.12154180842086
  H   0.03751867872560     -2.22539213182597     -1.07957771535851
  H   2.00353812515059     -3.66963560799555     -0.76467831050225
  H   4.07378760887048     -2.74928799572011      0.26086830700874
  C   -1.59427787154564      0.02125492632951     -0.17767998265187
  C   -2.58771756727314      1.01043793341497     -0.26209947489277
  C   -1.97728568577492     -1.26961949297340      0.21770443514960
  C   -3.92378843612922      0.69526450191711     -0.05857101690531
  H   -2.28885802330068      2.02105290555590     -0.51058938542120
  C   -3.31909052221557     -1.57842859442977      0.42878829650390
  H   -1.23621742422349     -2.02757325244175      0.42405603939690
  C   -4.30062854769804     -0.60452722166508      0.27845791389878
  H   -4.67445739288548      1.47249838155112     -0.14701105851649
  H   -3.59128524439248     -2.58260987837141      0.73361796071472
  H   -5.34416018096096     -0.84829101643531      0.44187452814325
  N   2.24246601503619      1.40996271076831      0.45921592041033
  H   3.13716561081872      1.82987717093462      0.68147386410809
  N   0.01725868386378      1.74062705696593     -0.20796940304364
  O   1.52813115961573      3.47211239379233     -0.18263802190353
