27
Coordinates from ORCA-job mp2_opt
  C   1.42922173742881      2.26204579320450     -0.14891056769167
  C   2.21683933115704     -0.05025309511033     -0.07976527397601
  C   0.89330353577473     -0.49641611877286      0.08067447099531
  C   -0.13854466584003      0.51985375317486     -0.01132098008651
  H   4.29770029901967     -0.60397306946137     -0.18386222338973
  C   3.28150842204406     -0.95873051779957     -0.04494766588684
  C   0.65896234821970     -1.85650874369958      0.34811494781516
  C   1.71631754323784     -2.74828549659655      0.40040803645521
  C   3.02638926251792     -2.29922730140272      0.18748992158516
  H   -0.35360602307824     -2.19481387242619      0.53000597543350
  H   1.53115145325955     -3.79502364520732      0.60962102943591
  H   3.85201258439694     -3.00107647914567      0.22015524091186
  C   -1.56682044854130      0.13743019403871     -0.01194615652992
  C   -2.46222238469500      0.85583839850101      0.78667859041310
  C   -2.04459781086934     -0.88175888908024     -0.84410649023017
  C   -3.81579622184244      0.53698580590597      0.77494734411058
  H   -2.08236847262968      1.66131920165555      1.40479987530914
  C   -3.40411739223686     -1.18063991392932     -0.86929360709366
  H   -1.35877697058187     -1.41196022820197     -1.49613041505642
  C   -4.29023163868156     -0.48038888404760     -0.05270701504771
  H   -4.50399844238604      1.08904476639960      1.40500648457254
  H   -3.77186889271240     -1.95681206974732     -1.53076005962872
  H   -5.34735297633073     -0.71981494973370     -0.06818752139245
  N   2.41992289836896      1.29469288899455     -0.25103534015319
  H   3.36292853067306      1.65655957471485     -0.32762627233067
  N   0.10954912677279      1.79628827338295     -0.09825383624382
  O   1.71029026755442      3.44531062438978     -0.14327149229998
