27
Coordinates from ORCA-job mp2_opt
  C   1.51518205659187      2.23779720469311     -0.15049384234770
  C   2.21236330680186     -0.10485035802229     -0.02760439845443
  C   0.86595028993932     -0.50102195682021      0.04094519625797
  C   -0.11914336622529      0.55628468470860     -0.07241982996193
  H   4.27236079791909     -0.74130862813157     -0.01179703502963
  C   3.23579896085616     -1.05684341616838      0.04949615086721
  C   0.55772770319248     -1.85928557071216      0.22816792275806
  C   1.57322610613390     -2.79585738648653      0.31373355208557
  C   2.91175943399581     -2.39270990155234      0.21442969145226
  H   -0.47956607979991     -2.16000786714210      0.31433009413758
  H   1.33369491800894     -3.84237449319719      0.45891501069092
  H   3.70493717469960     -3.12921250697600      0.27572122639696
  C   -1.55883993357578      0.21496899029338     -0.05753115942925
  C   -2.37694012722219      0.74804428511803      0.94169382257501
  C   -2.10359813941768     -0.64168860792848     -1.01942114101805
  C   -3.73007775370213      0.42473368507957      0.97798431145726
  H   -1.94492660856720      1.42080737680392      1.67438234491344
  C   -3.46182044691078     -0.94616966694812     -0.99055862574077
  H   -1.46781464455990     -1.04681813481999     -1.80007279013819
  C   -4.27504673073622     -0.42044056945315      0.01228126863545
  H   -4.36135118699812      0.83686083643490      1.75697333286662
  H   -3.88533455191820     -1.59262696960598     -1.75082081899062
  H   -5.33098466248565     -0.66392307445144      0.03756223631341
  N   2.47472304774222      1.23425128438184     -0.15833911529777
  H   3.43299771955296      1.56159097181976     -0.18501860696886
  N   0.17545655880728      1.82294254003791     -0.14224359604209
  O   1.83905115787754      3.40977924904492     -0.16997220198845
