27
Coordinates from ORCA-job mp2_opt
  C   1.30579701692957      2.28548158825418      0.05311717822584
  C   2.18388315685906      0.05224523085461     -0.24969007058833
  C   0.94352210266168     -0.48833447674368      0.14372817645671
  C   -0.17384665388894      0.45172302374725      0.17889964362802
  H   4.23785579205364     -0.34286066674846     -0.75981479905758
  C   3.30187000035089     -0.77382555265837     -0.41900527548178
  C   0.90919588314079     -1.83801099286711      0.54231571846134
  C   2.02927401184656     -2.64305907970513      0.41838999568101
  C   3.21800019101067     -2.11781070421527     -0.10053763056983
  H   0.01529445115937     -2.23825707285580      0.99906219867119
  H   1.98568635890407     -3.67858818612410      0.73357300505845
  H   4.08947874505723     -2.75161354856758     -0.21709389924867
  C   -1.59487277469614      0.04375455015684     -0.00013233707453
  C   -2.01121296002419     -1.27750895352179     -0.22027899676493
  C   -2.57954436799768      1.03391367217837      0.15622919663121
  C   -3.36517577202708     -1.58595896472019     -0.32916376769962
  H   -1.29053877389396     -2.05831840447747     -0.41141898459419
  C   -3.92725693416883      0.71843812240177      0.05489892776334
  H   -2.26151866066418      2.04924462542493      0.35639005339238
  C   -4.33048024224166     -0.59562687901921     -0.18078293166702
  H   -3.66196349699127     -2.60968888801161     -0.52727459737572
  H   -4.66848178200646      1.50091211501332      0.17237576044117
  H   -5.38359554027605     -0.84115452787521     -0.25674367397529
  N   2.27440153066211      1.41177842772696     -0.42237433862361
  H   3.18077680437610      1.82967191262369     -0.59602086124614
  N   0.02866465439372      1.73939966079777      0.15465155436152
  O   1.55217525947098      3.45703496893132      0.26558675519507
