27
Coordinates from ORCA-job mp2_opt
  C   1.34208044239313      2.28601768692383     -0.09181780785367
  C   2.20463913127482      0.00936225501939     -0.16708504314721
  C   0.92218066156626     -0.48526995283188      0.13176705512474
  C   -0.15840681614686      0.48691740688067      0.10523851239129
  H   4.28338150091400     -0.46460007161012     -0.48262182133244
  C   3.30391514227770     -0.85578103552082     -0.22694882793351
  C   0.78528130508858     -1.83907020866575      0.48779536266370
  C   1.88076969815746     -2.68484667314906      0.45978641839134
  C   3.13617474362836     -2.19583488282519      0.07723065726034
  H   -0.17929764383881     -2.20875429779412      0.81126678879807
  H   1.76763594679761     -3.72526282210358      0.73978556081773
  H   3.99049848600276     -2.86222162237466      0.04239294233054
  C   -1.57678758126015      0.06365019727208      0.07365206346196
  C   -2.55030422081047      0.94080562814592      0.56962538410489
  C   -1.98342898167477     -1.10480826012137     -0.58532579218434
  C   -3.89831143642481      0.62010935602834      0.47149694264619
  H   -2.22751898220227      1.86460840873464      1.03481168688569
  C   -3.33711210215829     -1.41078315590692     -0.69795110387881
  H   -1.24956532172674     -1.74744345221761     -1.05610115651859
  C   -4.29760089738950     -0.55900765885815     -0.15779313591298
  H   -4.64179058216696      1.29712897558903      0.87644475413635
  H   -3.64082362478768     -2.31090373815026     -1.22027757531923
  H   -5.35047021148919     -0.80357222423701     -0.24035980406936
  N   2.33982658632214      1.36007914591111     -0.36776837369375
  H   3.26178049317869      1.75531322618360     -0.50881284762542
  N   0.04732732894866      1.77106915702077      0.01604819019665
  O   1.58968893552634      3.47432561265711     -0.01535802974016
