27
Coordinates from ORCA-job mp2_opt
  C   1.58399931944128      2.21555860956049      0.10563157679331
  C   2.20521017537871     -0.15143661275803      0.00634112178064
  C   0.84605858058038     -0.50336159370690     -0.01934540919675
  C   -0.10209408867486      0.58764245531530      0.06093283313690
  H   4.24123639843168     -0.86276589031555     -0.03354176859717
  C   3.19259609802834     -1.14155366666647     -0.05742622014681
  C   0.48213304696478     -1.85584258411685     -0.12828066673669
  C   1.46206366328743     -2.83090430406474     -0.19710197453637
  C   2.81614862456510     -2.47060153233796     -0.15682961427160
  H   -0.56899923434628     -2.11907223576143     -0.16140560432708
  H   1.18380951228055     -3.87445197874226     -0.28276327800152
  H   3.58108426282047     -3.23731550568402     -0.20762693328763
  C   -1.55038313695157      0.27265094671801      0.04417649390837
  C   -2.29751811236407      0.51371378386862     -1.11034060550472
  C   -2.16021123554062     -0.30390513328793      1.16123822613670
  C   -3.65214743763630      0.19248565367409     -1.14103333144228
  H   -1.81552915583688      0.96394403870439     -1.97172600017875
  C   -3.51807252806036     -0.61149050228886      1.13099578576932
  H   -1.57364250524071     -0.49448483154641      2.05440677446255
  C   -4.26428171939379     -0.36798568606368     -0.02113184480307
  H   -4.23068809430181      0.38291391435720     -2.03784319537916
  H   -3.99306783494327     -1.04165341205971      2.00557460337285
  H   -5.32034989678894     -0.61113320354476     -0.04478635870324
  N   2.51163556396850      1.18247495580772      0.08787933962715
  H   3.47993002625973      1.48002132610972      0.09793738500850
  N   0.22891359136062      1.84519970377947      0.10399190677501
  O   1.94423511671188      3.37648228505054      0.13197475834155
