27
Coordinates from ORCA-job mp2_opt
  C   1.48624380824738      2.24618413936518      0.15415487849540
  C   2.21498113948096     -0.08634759855620      0.04227185307106
  C   0.87519101660775     -0.49988928206515     -0.05408164242544
  C   -0.12575076381860      0.54350324987630      0.05686250493134
  H   4.28343684569804     -0.69411316227447      0.06046442571002
  C   3.25285796836717     -1.02343501278412     -0.02449128578939
  C   0.59095241367198     -1.85947876783872     -0.26873316319131
  C   1.62091701842680     -2.78085470688517     -0.34636475938467
  C   2.95129095423212     -2.36142937483339     -0.21221275058932
  H   -0.43923847274391     -2.17372422811059     -0.38456544235416
  H   1.39879374965484     -3.82802688877685     -0.51293904777687
  H   3.75573981853243     -3.08615538621207     -0.26634783045192
  C   -1.56166848247610      0.18866165362785      0.04669126217464
  C   -2.40640964613959      0.79244347226030     -0.88862093214539
  C   -2.08365710442239     -0.73032310681107      0.96326584737985
  C   -3.75990878787666      0.47083334576033     -0.91262518088659
  H   -1.99232154714008      1.51613432762225     -1.58182789708084
  C   -3.44259192544013     -1.03259175577890      0.94869340534975
  H   -1.43054574089305     -1.18367507694036      1.70177151667387
  C   -4.28085293215557     -0.44014713757341      0.00555965535918
  H   -4.41078100930174      0.93639196515285     -1.64396939850119
  H   -3.84725160238296     -1.72846645954684      1.67481203133939
  H   -5.33734427773861     -0.68212790379904     -0.00920278120336
  N   2.45781392350836      1.25487391934474      0.18794546408207
  H   3.41135795433092      1.59418542037658      0.22968097530851
  N   0.15299995496704      1.81367197449736      0.13401360669367
  O   1.79509372680361      3.42235038090260      0.16774568521171
