27
Coordinates from ORCA-job mp2_opt
  C   1.31140275376283      2.29238085614070      0.05004665379774
  C   2.19193582963904      0.03146612370877      0.20363319437523
  C   0.93344029884753     -0.48159119293731     -0.16131065633300
  C   -0.16488920461799      0.47328815992013     -0.17207678378479
  H   4.25563015362307     -0.41290300873483      0.63667350589838
  C   3.29869838148439     -0.81825784217605      0.32363262024212
  C   0.84378706346951     -1.83198486465065     -0.54616688106000
  C   1.94939579698520     -2.66110752969618     -0.46331389116194
  C   3.17080617337869     -2.15857566634901      0.00218265780283
  H   -0.08970404301928     -2.21240631939370     -0.94002425517066
  H   1.87016905995505     -3.69873533771694     -0.76484998642356
  H   4.03175860818666     -2.81224586909953      0.08392203426686
  C   -1.58283560942483      0.04071486647999     -0.12124944238805
  C   -2.57720989427429      0.97266734247024     -0.45328156281931
  C   -1.96829677432392     -1.18554098327678      0.43991110982609
  C   -3.92033891594881      0.65297885603738     -0.30634458464315
  H   -2.27240962269370      1.93872259796219     -0.83722469660412
  C   -3.31706915967537     -1.49463921914287      0.59764791332848
  H   -1.22283187114358     -1.87682154343739      0.81028315969048
  C   -4.29831356779114     -0.58544775113908      0.21263387853558
  H   -4.67678011244406      1.37754722085892     -0.58587387929934
  H   -3.59878235106801     -2.44366945561900      1.03992051019476
  H   -5.34746130525650     -0.83095626931516      0.33253932558790
  N   2.30106627725418      1.38472449163258      0.40387522198224
  H   3.21080005312699      1.79177379381499      0.58462967115340
  N   0.02873347410362      1.75991707102561     -0.08889894534672
  O   1.55178350786471      3.48000447263299     -0.05536789164747
