27
Coordinates from ORCA-job mp2_opt
  C   1.40455181845419      2.27572036856941     -0.13138134264881
  C   2.21378596765558     -0.02642057367151     -0.11397855632925
  C   0.90048172943317     -0.48726103510643      0.08801889984177
  C   -0.14641544679747      0.51644254774675      0.00633192074562
  H   4.29726087307280     -0.55425003973125     -0.27733580668033
  C   3.29092522697066     -0.92070621995415     -0.10207274155976
  C   0.69671858494706     -1.84431598900697      0.39497219857442
  C   1.76749687111355     -2.72081462961382      0.43063376530466
  C   3.06282994864391     -2.26020772578281      0.16188789683963
  H   -0.30199333582756     -2.19291506776783      0.62535497275541
  H   1.60391409224355     -3.76429494275550      0.67163942370296
  H   3.89857877669084     -2.95045454033774      0.17973460248986
  C   -1.57244167302360      0.12636355480691     -0.02196608352333
  C   -2.01888248053358     -0.98297212272713     -0.75086529803157
  C   -2.49819066256075      0.91155102546906      0.67463620382298
  C   -3.37490696884188     -1.29640939618818     -0.78330910621099
  H   -1.31482715614024     -1.56732432019346     -1.33236604116379
  C   -3.84798182678727      0.57993870095551      0.65678237941962
  H   -2.14122643924988      1.77772508313059      1.21964086756257
  C   -4.29040586060799     -0.52499108008850     -0.07024375183240
  H   -3.71643283191190     -2.14282494362984     -1.36826660171386
  H   -4.55787304362458      1.18626161214369      1.20787197952604
  H   -5.34448665383553     -0.77722198238614     -0.08920061316349
  N   2.39776014156120      1.32009888046324     -0.29883392450519
  H   3.33621720318790      1.69123102769306     -0.38663161733838
  N   0.09149424895832      1.79527710638223     -0.07904667523570
  O   1.67577689680952      3.46043570158080     -0.08530695064871
