27
Coordinates from ORCA-job mp2_opt
  C   1.58393486180641      2.21592126542746     -0.10641636173916
  C   2.20512245268158     -0.15122486353620     -0.00652152150263
  C   0.84594448517014     -0.50320644700233      0.01912365440080
  C   -0.10209244364829      0.58783244698238     -0.06113697263233
  H   4.24101444399982     -0.86261501927730      0.03381150291525
  C   3.19241501997709     -1.14139569383531      0.05759831018987
  C   0.48208141538571     -1.85561380397202      0.12825513976163
  C   1.46187870908668     -2.83076409353934      0.19731964803995
  C   2.81593050185514     -2.47038232036895      0.15712941400262
  H   -0.56902868844514     -2.11877087621572      0.16143940534279
  H   1.18360642716946     -3.87422942371314      0.28313310214443
  H   3.58083544944355     -3.23704952305651      0.20818966694669
  C   -1.55026824187343      0.27271580722683     -0.04432827836154
  C   -2.29732953295486      0.51374586518887      1.11022786179062
  C   -2.16010738715264     -0.30407612378793     -1.16123492235374
  C   -3.65186811641067      0.19221037338730      1.14112081875185
  H   -1.81537477592699      0.96411799391019      1.97150352018508
  C   -3.51787814702195     -0.61196172042073     -1.13082990382372
  H   -1.57362975747664     -0.49464129350288     -2.05441309908202
  C   -4.26402178318182     -0.36849961677278      0.02135273920429
  H   -4.23030051406874      0.38259680446001      2.03794664879394
  H   -3.99284116047942     -1.04229514981031     -2.00527709189614
  H   -5.31999124460434     -0.61182818370089      0.04514508739802
  N   2.51159747438122      1.18262122442836     -0.08835657975358
  H   3.47991551469544      1.48010537449527     -0.09794568536545
  N   0.22904955040323      1.84529562375707     -0.10435104143440
  O   1.94435748718945      3.37681837324861     -0.13136206192311
