24
Coordinates from ORCA-job mp2_opt
  C   -2.43940594719732      0.30653006988634      0.02889408290881
  C   0.26252521712337     -0.00186218018214     -0.01566928995709
  C   -1.67029800241795      1.51879771826712      0.16264986240714
  C   -2.71162850815170     -1.87611161434098     -0.20690804184448
  H   -2.43711772693266     -2.91282401227335     -0.32034426929043
  C   1.73711575797713     -0.06863109363341     -0.01029723031929
  C   2.45157441235300      0.26090367417321     -1.16475383906444
  C   2.41034744075835     -0.47566366301726      1.14321506583362
  C   3.84207842367971      0.19468966110466     -1.15803812492796
  H   1.91777781826007      0.55776763052724     -2.06156360441422
  C   3.80101371075655     -0.53900409577633      1.14319439713877
  H   1.84280617828340     -0.74534501475660      2.02718053376033
  C   4.51669489911929     -0.20221378563592     -0.00458551633000
  H   4.39772037971983      0.44508871626542     -2.05422121322432
  H   4.32565165677284     -0.85451738746391      2.03752320823266
  H   5.59924334128863     -0.25386947671443     -0.00194501907585
  N   -3.93665780793226     -1.36751770627504     -0.15001650549810
  N   -0.29506999660580      1.24308755329693      0.13930732393142
  H   0.32109388211920      2.04246207543364      0.23675167918841
  N   -0.41901000335462     -1.10107720021155     -0.13240566847470
  O   -2.09029817380728      2.65360995286032      0.28620495879437
  N   -1.77135210547388     -0.89936904615561     -0.10133319209088
  C   -3.78523798448432     -0.02288141975905     -0.00498995398920
  H   -4.62485886185360      0.65008064438068      0.06986335630540
