24
Coordinates from ORCA-job mp2_opt
  C   -2.44002541653666      0.30289184620038      0.03837696119878
  C   0.26319765015381      0.00716820369151     -0.01328354598861
  C   -1.67590018864724      1.51183814258633      0.22223076558776
  C   -2.70330118751338     -1.86996992852242     -0.28281612479314
  H   -2.42457148392550     -2.90041961028714     -0.43604309443535
  C   1.73717493708502     -0.05636516445648     -0.00544382179853
  C   2.45808642027948      0.42294262761520     -1.10242149982972
  C   2.40343680889156     -0.62849498990125      1.07977295261027
  C   3.84797595645108      0.34733112108874     -1.10116017300127
  H   1.93013166014489      0.84413441567833     -1.95185126656545
  C   3.79362488331154     -0.69910537006377      1.07526699873853
  H   1.82996893026028     -1.01666690530308      1.91429679854873
  C   4.51577884007166     -0.21035308879214     -0.01222925053116
  H   4.40829888633522      0.71445663456733     -1.95310454701222
  H   4.31293257070420     -1.14006142824235      1.91815878572144
  H   5.59796680544654     -0.26841377888770     -0.01349164313119
  N   -3.93036454125941     -1.36817459510833     -0.21227911743962
  N   -0.29969785166425      1.24223416488599      0.19362772139871
  H   0.31287372670747      2.03879716837725      0.32919214516950
  N   -0.41399308932163     -1.08981381475648     -0.17157378937373
  O   -2.10054085029302      2.63920885342096      0.39034854814673
  N   -1.76694374612376     -0.89489632009670     -0.13443679178438
  C   -3.78449832477959     -0.02958421821046     -0.01480953170648
  H   -4.62690039577831      0.63710503451627      0.08177052027039
