24
Coordinates from ORCA-job mp2_opt
  C   -2.44033361109626      0.30567390913896     -0.03954993246464
  C   0.26603154258109      0.01594626345818     -0.00891446994433
  C   -1.67875399700113      1.50942063036424     -0.26416294850738
  C   -2.69631531698454     -1.85990071308787      0.33479292332198
  H   -2.41389043350442     -2.88549610691876      0.51214142743738
  C   1.73393134517498     -0.05576764066233     -0.00983941642168
  C   2.48437911170792      0.90956477272211      0.67026252996848
  C   2.37640401123436     -1.11613550717114     -0.65440982487489
  C   3.87296554085471      0.82046527162615      0.68862709497598
  H   1.98511170318490      1.70949445061409      1.20772737573148
  C   3.76467580743443     -1.19519817015547     -0.63515993608975
  H   1.77990503984475     -1.86249447280085     -1.16599711874160
  C   4.51501215969606     -0.22794320995788      0.03281202054205
  H   4.45235196492573      1.56435222413886      1.22306824881366
  H   4.26315801315881     -2.01234640395760     -1.14352476158912
  H   5.59664790517855     -0.29336923922038      0.04563684027639
  N   -3.92474865859208     -1.36181660951076      0.26659874985174
  N   -0.30282087806719      1.24468599717922     -0.23700619006881
  H   0.30065325971684      2.03203458050471     -0.44508432014158
  N   -0.41219306756041     -1.07697393808316      0.18531717957804
  O   -2.10629329426096      2.63034541761685     -0.46670370391812
  N   -1.76291712749028     -0.88706198009057      0.15126237640914
  C   -3.78341882938971     -0.02771987565943      0.03621528942756
  H   -4.62816419074617      0.63493734991281     -0.06696343357196
