24
Coordinates from ORCA-job mp2_opt
  C   -2.44153711708440      0.31286368914047     -0.03345824576727
  C   0.26626165694227      0.01750942853333     -0.00602664364492
  C   -1.67653428494406      1.51914540005633     -0.22846585625567
  C   -2.70194771493826     -1.86059833823236      0.28764115393340
  H   -2.42170245900047     -2.89061589376330      0.44112552283754
  C   1.73348424215780     -0.06312576347779      0.00474152773613
  C   2.36520129108704     -1.19197643497942     -0.52634276470010
  C   2.49986816129874      0.97763838226453      0.54125880159716
  C   3.75270161912203     -1.27476500860690     -0.51947396510808
  H   1.75861925500665     -1.98837222549707     -0.94079631252755
  C   3.88842989234287      0.88514234619741      0.54700235837615
  H   2.01803138725986      1.83897605312825      0.99240007346958
  C   4.51750344572764     -0.23767516591524      0.01418986228664
  H   4.24014925699685     -2.14798899775933     -0.93727748298952
  H   4.47801768205632      1.68790639229283      0.97424134908168
  H   5.59907588176006     -0.30564637492197      0.01721810360796
  N   -3.92932489923515     -1.35924565664666      0.22637007842581
  N   -0.30118577291541      1.25285589085764     -0.19811062496393
  H   0.29973737166137      2.04321755100820     -0.40032289308328
  N   -0.41714868438926     -1.07708960692620      0.16461987176168
  O   -2.10130812990151      2.64468943983069     -0.41027856856176
  N   -1.76629099944698     -0.88481935316877      0.13134571854988
  C   -3.78527174677006     -0.02014225316512      0.02844820018679
  H   -4.62867733479392      0.64602949975047     -0.06239126424832
