24
Coordinates from ORCA-job mp2_opt
  C   -2.43673446119684      0.31878255149960      0.05037647455649
  C   0.26446973997646     -0.00352011430569     -0.02990098267220
  C   -1.65674977705270      1.51069390186711      0.27638791809531
  C   -2.72524737433723     -1.83893567927263     -0.34597190000165
  H   -2.45822558609992     -2.86551896776497     -0.54073097058544
  C   1.73188000507228     -0.09257502572962     -0.03989427842952
  C   2.37087279535419     -1.08864175788550      0.70284350742190
  C   2.48674729338451      0.84888248774702     -0.74749035491878
  C   3.76040682826472     -1.15007088553709      0.72153150515050
  H   1.77135385509021     -1.80463705858594      1.25319714651076
  C   3.87634309468072      0.77795454899093     -0.72712692242229
  H   1.98913171506477      1.61185696346439     -1.33775508537962
  C   4.51461191959679     -0.21835330114133      0.00921003303273
  H   4.25634307436948     -1.92131303103805      1.29936851214304
  H   4.45991152793325      1.49840342767855     -1.28847102544982
  H   5.59696278514324     -0.26846632414054      0.02762371698856
  N   -3.94622717186050     -1.32738099435771     -0.24935482494113
  N   -0.28463282262533      1.22823508102932      0.22785206603486
  H   0.33350323087661      2.00598289116974      0.42930777215452
  N   -0.42948297741824     -1.08549258262955     -0.22732068467767
  O   -2.06621785928241      2.63513597840965      0.49619432305940
  N   -1.77739307018206     -0.87948567794059     -0.16759088661259
  C   -3.78491892557373      0.00193886788844     -0.00526657149103
  H   -4.61989883917829      0.67279670058443      0.12145451243369
