24
Coordinates from ORCA-job mp2_opt
  C   -2.45573900071151      0.30939503500205      0.00503848498971
  C   0.26586344718489      0.04752726888097      0.00433938916598
  C   -1.70253211637774      1.53685976043212      0.05269711916085
  C   -2.68146319250663     -1.89080127577909     -0.06413554487720
  H   -2.38447824443658     -2.92702297021955     -0.09849241598197
  C   1.73706600791641     -0.03805544768597     -0.01765101457717
  C   2.54364632633082      1.10233592359850     -0.10878588404866
  C   2.34513379245864     -1.29590937986332      0.09078459185142
  C   3.93074237241094      0.98474845568561     -0.10203902524900
  H   2.11983144172611      2.09336011759171     -0.22297729481442
  C   3.72927686660050     -1.40536279818770      0.09558633336548
  H   1.71948233546445     -2.17591821510592      0.17080687507025
  C   4.52964257507085     -0.26673590136279      0.00363154834268
  H   4.54135979253044      1.87687924208776     -0.17839118794773
  H   4.18657863658061     -2.38444847999974      0.17919284149781
  H   5.60973575885008     -0.35496255123631      0.01073149398247
  N   -3.91622188645646     -1.40560995041410     -0.04883261249772
  N   -0.32393452403255      1.28630725409822      0.03800465114885
  H   0.25074290753668      2.11357396858413      0.12706548661376
  N   -0.41367768911021     -1.06298025816117     -0.04119463888730
  O   -2.13626290282525      2.67268782253132      0.10254377005561
  N   -1.76134153569014     -0.88779643155735     -0.03107688543316
  C   -3.79383399353283     -0.05020704392936     -0.00607912700574
  H   -4.64871617498152      0.60698785500999      0.01609604607522
