24
Coordinates from ORCA-job mp2_opt
  C   -2.43348931820315      0.32467049908466     -0.05250434260872
  C   0.26165443925372     -0.03125099922084      0.04572764744754
  C   -1.63843383194002      1.50961570044453     -0.26253311463206
  C   -2.75068534789946     -1.83163512661949      0.32855437869386
  H   -2.49740169554425     -2.86287684125266      0.51690195490855
  C   1.73234704358177     -0.12825656187867      0.05096715133462
  C   2.38739244732547     -0.81482094268297     -0.97332745443623
  C   2.46867653911189      0.54843498352355      1.02776295252126
  C   3.77863658815748     -0.84954869359685     -0.99988338100259
  H   1.80310126420802     -1.32536550376935     -1.73084453686317
  C   3.85953941845225      0.50757403969344      0.99644626743580
  H   1.95230376389193      1.08486409437073      1.81742902435244
  C   4.51477653861024     -0.18894838745901     -0.01762193655487
  H   4.28832991867270     -1.38627069744467     -1.79155562528803
  H   4.43077570878627      1.01899182853952      1.76247549902052
  H   5.59782754494852     -0.21710950544871     -0.04179017016766
  N   -3.96485380065325     -1.30487814912968      0.22573002504178
  N   -0.26955500091586      1.20829131830712     -0.21224522977662
  H   0.36307335176725      1.98419997664210     -0.37298534981790
  N   -0.44373028439646     -1.10657053655594      0.22941613502956
  O   -2.03302879006689      2.64172686865560     -0.46895753697590
  N   -1.79052397913733     -0.88256295743467      0.16437097293279
  C   -3.78585339229416      0.02375202743148     -0.00871105950058
  H   -4.61180412571668      0.70539156580078     -0.13717227109439
