24
Coordinates from ORCA-job mp2_opt
  C   -2.43942977349177      0.30649057000686     -0.02895951014067
  C   0.26250826515708     -0.00182866244538      0.01561095882119
  C   -1.67035198673782      1.51875439733693     -0.16299877918648
  C   -2.71158016025659     -1.87611805756248      0.20721183791824
  H   -2.43703195460807     -2.91280379045643      0.32080626924440
  C   1.73710599299754     -0.06857651436545      0.01031046348927
  C   2.45150256171789      0.26119631267225      1.16474063332951
  C   2.41039513932788     -0.47584220310654     -1.14308597079909
  C   3.84200545999183      0.19497740179313      1.15810428269595
  H   1.91764613699142      0.55824326044924      2.06145491607903
  C   3.80106272525948     -0.53919107184296     -1.14297564418803
  H   1.84288245193198     -0.74570876558644     -2.02701422717375
  C   4.51668214152561     -0.20216697516449      0.00476978152670
  H   4.39761748439279      0.44555709342669      2.05425653971725
  H   4.32574885392564     -0.85489165701684     -2.03721118947790
  H   5.59923139002278     -0.25382483389186      0.00220561303684
  N   -3.93662385804098     -1.36756204804905      0.15034018611032
  N   -0.29511231645279      1.24307182865979     -0.13963669595876
  H   0.32105362200857      2.04243513779605     -0.23715571215226
  N   -0.41898875485504     -1.10104275391363      0.13254718159749
  O   -2.09036700289919      2.65354946223735     -0.28659419137401
  N   -1.77134453559744     -0.89936757093305      0.10144442809890
  C   -3.78525412131278     -0.02295358376794      0.00506362858873
  H   -4.62491176099799      0.64995602372423     -0.06986179980286
