24
Coordinates from ORCA-job mp2_opt
  C   -2.44764889264002      0.30989155874872      0.01315996775191
  C   0.26661780438624      0.03378513983181      0.03485635365449
  C   -1.69185660081166      1.52886511862529      0.15152249294884
  C   -2.68759552517677     -1.87958900769529     -0.19324970622975
  H   -2.39771031314901     -2.91403317858451     -0.28766287190609
  C   1.73543240153934     -0.04536019367664      0.02408237007447
  C   2.35764393938417     -1.25969008637968      0.33745554108588
  C   2.51856368371583      1.05914916529609     -0.33123723834218
  C   3.74301802372977     -1.35739819406278      0.31198389007542
  H   1.74312487075214     -2.11015262486087      0.60607231091768
  C   3.90617674490186      0.95272868674495     -0.35452164307760
  H   2.06141534325706      1.99485589848716     -0.63415732567416
  C   4.52288210306983     -0.25232214849634     -0.02931888254349
  H   4.21772026610470     -2.29884003743436      0.56322982585048
  H   4.50387866598220      1.81181880471633     -0.63604218520385
  H   5.60355763264168     -0.33193649749950     -0.04656971998878
  N   -3.91929912539572     -1.38615031601195     -0.16960883713096
  N   -0.31447186323276      1.27293366581117      0.14275375319039
  H   0.27026777321550      2.08049892052843      0.31848008085373
  N   -0.41220262375309     -1.07098687518298     -0.08877734783862
  O   -2.12545063320013      2.65933875333166      0.27158624973503
  N   -1.76101458045023     -0.88849191962243     -0.08179724383789
  C   -3.78785680745203     -0.03702383428928     -0.04233286294980
  H   -4.63737228741891      0.62587220167499      0.00540102858484
