24
Coordinates from ORCA-job mp2_opt
  C   -2.45690643916458      0.30834487221404      0.00002904088303
  C   0.26588076063703      0.05151156226395      0.00000321022803
  C   -1.70571011041087      1.53774728221608     -0.00000157190909
  C   -2.67881015525499     -1.89344485316597     -0.00002468591989
  H   -2.38013722202180     -2.92973586856933     -0.00004452336740
  C   1.73768176225258     -0.03372758507169      0.00000429345378
  C   2.54768386105966      1.10779353801250     -0.00004073640943
  C   2.34321734906794     -1.29786071742077      0.00004833684243
  C   3.93442824289756      0.98639008743206     -0.00000647561293
  H   2.12939809160847      2.10742847212217     -0.00010460409107
  C   3.72690837602482     -1.41098747023301      0.00008802428557
  H   1.71499246660426     -2.17953830984176      0.00008103306634
  C   4.53026014467404     -0.27089168144089      0.00004743676795
  H   4.54726196129975      1.88021639645983     -0.00004076319847
  H   4.18158406107396     -2.39479756544042      0.00011988691992
  H   5.61010436847729     -0.36204151833040      0.00007979960065
  N   -3.91447847036060     -1.41018987560335     -0.00000834393438
  N   -0.32706524693438      1.28930124012146     -0.00004404869781
  H   0.24476804693858      2.12288938644560      0.00005964852184
  N   -0.41264969254110     -1.06062585323457      0.00000932620925
  O   -2.14111591240055      2.67444325489373      0.00006012603044
  N   -1.76019216375965     -0.88803869109507     -0.00000339834981
  C   -3.79434206897044     -0.05362677128683      0.00002293702148
  H   -4.64985501079700      0.60303166855264      0.00004905165958
