24
Coordinates from ORCA-job mp2_opt
  C   -2.45574717886499      0.30941585625887     -0.00495159619286
  C   0.26585176679342      0.04755376138199     -0.00428470421695
  C   -1.70254835503068      1.53688280383766     -0.05246662838446
  C   -2.68148738480962     -1.89078582067830      0.06411831219589
  H   -2.38450994564960     -2.92700846777595      0.09846753196881
  C   1.73704996092122     -0.03802683671611      0.01763545976441
  C   2.54363752682588      1.10236537191327      0.10868609778087
  C   2.34511024128360     -1.29589297013980     -0.09074370066836
  C   3.93073134867282      0.98477225096015      0.10193417539534
  H   2.11983470650313      2.09340353465881      0.22278508111632
  C   3.72925197818766     -1.40535021463541     -0.09555447719381
  H   1.71944756528444     -2.17589783608000     -0.17070253001567
  C   4.52962290874542     -0.26672222514457     -0.00366023318823
  H   4.54135217552641      1.87690350655566      0.17823202944423
  H   4.18655520370058     -2.38443728109915     -0.17912167376956
  H   5.60971414277040     -0.35495486450291     -0.01076740569032
  N   -3.91624700466106     -1.40558726351984      0.04873757644588
  N   -0.32395307332418      1.28633104163345     -0.03797223455053
  H   0.25070998162577      2.11361815492070     -0.12692409527089
  N   -0.41369135614274     -1.06295688942658      0.04126772658095
  O   -2.13629050547467      2.67270713861366     -0.10251840086500
  N   -1.76135200441196     -0.88778028263820      0.03111437865322
  C   -3.79384459871665     -0.05017865934154      0.00599579223953
  H   -4.64871009975459      0.60703519096414     -0.01620948157881
