24
Coordinates from ORCA-job mp2_opt
  C   -2.43378527503049      0.32364738633157      0.05671866181722
  C   0.26225693323735     -0.02418420822031     -0.05056925575793
  C   -1.64104689577770      1.50777541308753      0.28029657237154
  C   -2.74613567792168     -1.82871214821972     -0.35034234950062
  H   -2.49048585074053     -2.85674514157235     -0.55261706116655
  C   1.73180770047980     -0.12098819789077     -0.05653553087347
  C   2.37952130123299     -0.90701635702589      0.89884459285325
  C   2.47580433568540      0.64580865365823     -0.95839058701878
  C   3.77029407525311     -0.94784263593471      0.92952991867144
  H   1.78892499270808     -1.48691914524100      1.59928087350182
  C   3.86624680124349      0.59744866143573     -0.92397379459248
  H   1.96620954968871      1.25704000075815     -1.69653130432561
  C   4.51409077352184     -0.19662810593595      0.02080870993466
  H   4.27405870794057     -1.56035430321481      1.66825394822308
  H   4.44288099569441      1.17917540311347     -1.63376936422706
  H   5.59689300934922     -0.23014935839622      0.04806703595053
  N   -3.96141077698082     -1.30650017653505     -0.23857829682020
  N   -0.27167248817794      1.21088975448097      0.22270698928643
  H   0.35882843140028      1.98494015127027      0.39967636904762
  N   -0.44134207228944     -1.09887705869502     -0.24627686794274
  O   -2.03777972470878      2.63601845425427      0.50334805930903
  N   -1.78810900510147     -0.87921462899183     -0.17599176449785
  C   -3.78544121358980      0.01960241086567      0.01200611767526
  H   -4.61300362711660      0.69722917661777      0.15083932808141
