24
Coordinates from ORCA-job mp2_opt
  C   -2.44105005833296      0.30697720003387     -0.03563026735194
  C   0.26627627951294      0.01693335479235     -0.01154751535362
  C   -1.67927923695435      1.51280044405712     -0.24683839311236
  C   -2.69673057981473     -1.86293802699501      0.31241822821961
  H   -2.41422879085353     -2.89059527344431      0.47720001634673
  C   1.73383226190677     -0.05731703131790     -0.00740017991593
  C   2.49035664711540      0.94946269500291      0.60257360428816
  C   2.37252944345599     -1.15690553528623     -0.58778654290621
  C   3.87888630435138      0.85870023616934      0.61983659304932
  H   1.99816123023935      1.78267362554055      1.09382781611507
  C   3.76037959984421     -1.23760856424945     -0.56980030908852
  H   1.77225594247050     -1.93179905101792     -1.04982331760599
  C   4.51619098110536     -0.23098618069079      0.03058479878270
  H   4.46197722013169      1.63503639855193      1.10144342308510
  H   4.25469062067981     -2.08629720221798     -1.02810797395926
  H   5.59777408023486     -0.29763460094438      0.04256717291797
  N   -3.92518471354833     -1.36417960742112      0.25053770725405
  N   -0.30337311050167      1.24865780741504     -0.22038489345021
  H   0.29777094580502      2.03795760314343     -0.42702499104687
  N   -0.41315772022907     -1.07764768602530      0.17166657185298
  O   -2.10693809082390      2.63562145436822     -0.43839580119967
  N   -1.76333888685766     -0.88778777513618      0.14043586019626
  C   -3.78403054546139     -0.02733930959503      0.03620852872485
  H   -4.62882582347570      0.63649102526684     -0.05875913584222
