24
Coordinates from ORCA-job mp2_opt
  C   -2.44553964789731      0.30939557867241     -0.02348048605688
  C   0.26643547748113      0.02534217566597     -0.01129413417389
  C   -1.68514422133017      1.52362266125376     -0.17916823749672
  C   -2.69508241616986     -1.87464020107465      0.22511577619293
  H   -2.40974088585650     -2.90783716829847      0.34383666384099
  C   1.73437521580985     -0.05583318232704      0.00909156842805
  C   2.51293771280666      1.03805549898469      0.40467659505396
  C   2.35978382831428     -1.24425159081768     -0.38488703541615
  C   3.90123522435021      0.93947530417834      0.41022766878253
  H   2.04830239632349      1.95289097761044      0.75681572665952
  C   3.74622074356592     -1.33367671234162     -0.37792715580375
  H   1.74722689938525     -2.08173612872425     -0.69588417992619
  C   4.52169743381985     -0.24304358965007      0.01567085742678
  H   4.49699710642140      1.78711506925549      0.72818952625380
  H   4.22508139036462     -2.25519150839984     -0.68819255888735
  H   5.60297119061668     -0.31598950201659      0.01802530799627
  N   -3.92482036143088     -1.37769873877017      0.17973960794719
  N   -0.30862297565813      1.26397390257796     -0.15194405667881
  H   0.28286850033817      2.06467674836529     -0.33783437711286
  N   -0.41540583855901     -1.07563572928024      0.12704228276957
  O   -2.11461062007331      2.65235960390833     -0.32696032560214
  N   -1.76409946541771     -0.88923639545874      0.10215653429074
  C   -3.78746867961834     -0.03195824760409      0.02620333992476
  H   -4.63413800758629      0.63266517429078     -0.04323790841236
