24
Coordinates from ORCA-job mp2_opt
  C   -2.43543196745114      0.32060160988166     -0.05421690069833
  C   0.26371154789774     -0.01045998586012      0.04277851180208
  C   -1.65038947943817      1.50878862497138     -0.28297004995468
  C   -2.73326568059941     -1.83368458744382      0.35385596547259
  H   -2.47065399328280     -2.85996668595206      0.55609579926777
  C   1.73159382564027     -0.10306083984021      0.05119324940457
  C   2.37179059806045     -1.04130982992110     -0.76198142257608
  C   2.48439449616802      0.79327308905320      0.81673220295637
  C   3.76175293037287     -1.09536507800859     -0.78895855602885
  H   1.77393897770557     -1.72135119214842     -1.35807814456308
  C   3.87423307610809      0.73035486392812      0.78728955912210
  H   1.98379712228644      1.51512195465949      1.45434853676965
  C   4.51407829381691     -0.21112729996532     -0.01690887952335
  H   4.25906349826512     -1.82287905767150     -1.41990081225714
  H   4.45669933520775      1.41451930115220      1.39341646447401
  H   5.59655601914515     -0.25508146665704     -0.04187649244851
  N   -3.95201104943917     -1.31888509320623      0.24650278772609
  N   -0.27936921359859      1.22105011615449     -0.22868412274158
  H   0.34382721320000      1.99632963051412     -0.42446947650285
  N   -0.43409891132247     -1.08891274650661      0.24326655545128
  O   -2.05476937995254      2.63377117887983     -0.50917591952337
  N   -1.78142935042394     -0.87838009643594      0.17553208466954
  C   -3.78498490494972      0.00834043017592     -0.00474203511660
  H   -4.61708900341641      0.68093416024657     -0.14079790518162
