24
Coordinates from ORCA-job mp2_opt
  C   -2.45027987882847      0.30958128277228     -0.00686622254990
  C   0.26645092762889      0.03930833008740     -0.03828891010529
  C   -1.69630758604442      1.53221277311290     -0.11984032184453
  C   -2.68412843927067     -1.88450803274167      0.15368028444756
  H   -2.39123830202783     -2.91994384407761      0.22571640029707
  C   1.73613006074604     -0.04122876120458     -0.02811356536111
  C   2.35363008782774     -1.27546805050735     -0.26631489790908
  C   2.52682679640039      1.07818214524877      0.25704829113695
  C   3.73838840889993     -1.37797118978242     -0.23929706733603
  H   1.73549796595172     -2.13875273773266     -0.47960363242130
  C   3.91418254858697      0.96731931359493      0.28108579988043
  H   2.08052949783843      2.03523489034813      0.50336912967986
  C   4.52507492043444     -0.25771367491964      0.02905427772867
  H   4.20728931067291     -2.33597239454732     -0.43214146438539
  H   4.51595588041082      1.84018780192239      0.50595798715018
  H   5.60548652960437     -0.34085821794480      0.04711251106725
  N   -3.91711117186966     -1.39413594500802      0.14042533917796
  N   -0.31840663813494      1.27873268995575     -0.11743961578761
  H   0.26162308965464      2.09304754519922     -0.27448552736451
  N   -0.41187660911217     -1.06811789678718      0.06420051727938
  O   -2.13097509808362      2.66475763866398     -0.21432639314695
  N   -1.76037277695370     -0.88851519843986      0.06341388532965
  C   -3.78949999990650     -0.04222099054465      0.04155057066503
  H   -4.64111852442530      0.61882552333202      0.00774862437170
