24
Coordinates from ORCA-job mp2_opt
  C   -2.43385004979826      0.32406348194795     -0.04595772560053
  C   0.26119746567537     -0.03479026771991      0.03824578059620
  C   -1.63915875942180      1.51334099451440     -0.23024022120197
  C   -2.75123836812602     -1.83972300520719      0.28881371454661
  H   -2.49816259309253     -2.87503166821465      0.45352912171637
  C   1.73319157177532     -0.12940660421104      0.04151312984514
  C   2.39590980507961     -0.69420903301093     -1.04989007094153
  C   2.46159003243374      0.42886413096977      1.09559680413427
  C   3.78741326326591     -0.72650164202696     -1.07020948710938
  H   1.81829505958569     -1.11536427609424     -1.86539417453493
  C   3.85278956457644      0.39178641039812      1.06963719292105
  H   1.93844454996888      0.87171317314690      1.93700080931723
  C   4.51574655522779     -0.18363591465534     -0.01298318809367
  H   4.30315476968338     -1.17054308749749     -1.91366986758331
  H   4.41832936222087      0.81141559414757      1.89344181951120
  H   5.59899196454511     -0.20945297426799     -0.03216845410626
  N   -3.96542094326386     -1.31036241448312      0.19962391883562
  N   -0.27010015025452      1.21102157557311     -0.18704834181696
  H   0.36281209888363      1.99122537240106     -0.32445596281674
  N   -0.44368171248136     -1.11379444590094      0.19930643435643
  O   -2.03438886427884      2.64970857847134     -0.40995678935242
  N   -1.79097421832638     -0.88768671917463      0.14397390555701
  C   -3.78624052124876      0.02293552768071     -0.00634386008954
  H   -4.61198088262941      0.70774921321351     -0.11836448808988
