24
Coordinates from ORCA-job mp2_opt
  C   -2.44046475108418      0.30051356782447     -0.04530479990872
  C   0.26463649926733      0.01915181817304      0.00824050413929
  C   -1.68194594640265      1.50515036859405     -0.27679289479853
  C   -2.69225352264326     -1.86117773656076      0.35336117956620
  H   -2.40781579637413     -2.88397567413430      0.54324198842807
  C   1.73620359963085     -0.04395394416221     -0.00476198364011
  C   2.46970956747627      0.66061606326957      0.95444290479425
  C   2.38976458967932     -0.85635915625603     -0.93341808946517
  C   3.85859547640762      0.57220812855416      0.96386076761564
  H   1.95293964896588      1.26439297138809      1.69368409868438
  C   3.77903660753976     -0.93701255507042     -0.92021507640160
  H   1.80532875543755     -1.41690812661392     -1.65434171580820
  C   4.51381649127296     -0.22305243510708      0.02523348870438
  H   4.42763875421818      1.11450608745691      1.71003396844689
  H   4.28845696895288     -1.56080398390119     -1.64547892915940
  H   5.59537580090121     -0.29024668646569      0.03420762738586
  N   -3.92186875764806     -1.36791881083537      0.27027538028517
  N   -0.30480300512639      1.24215304679371     -0.24732946777867
  H   0.30264540129743      2.03349003946817     -0.42844283338195
  N   -0.40806694055906     -1.07436212682092      0.20828547775862
  O   -2.11164123713297      2.62397159841619     -0.48538335334805
  N   -1.76107647521072     -0.88764593050273      0.16588050731032
  C   -3.78314910443454     -0.03634209577510      0.02527994419850
  H   -4.62928862443129      0.62225657226737     -0.09162269362716
