24
Coordinates from ORCA-job mp2_opt
  C   -2.44340228715104      0.31131115221212     -0.02704609950412
  C   0.26655237883127      0.02356896116658     -0.01544927285322
  C   -1.68223776664043      1.52228194821370     -0.20531054287173
  C   -2.69606064894192     -1.86777472495552      0.25946591762292
  H   -2.41218389527267     -2.89930262721693      0.39502463550000
  C   1.73413762945434     -0.05571860471516     -0.00502231069903
  C   2.36255315615706     -1.21786738645141     -0.46484111914253
  C   2.50585722454252      1.00959781577451      0.47299084891499
  C   3.74930723953925     -1.30621189973607     -0.45167522503758
  H   1.75311790454301     -2.03477291304012     -0.83207527086107
  C   3.89410102083072      0.91185146113471      0.48472307942151
  H   2.03148468211828      1.89782225209692      0.87703912759964
  C   4.51898274894465     -0.24271349253857      0.01969813939844
  H   4.23274200819967     -2.20557107690508     -0.81521031673415
  H   4.48646065451870      1.73589292348014      0.86498346308109
  H   5.60025692451537     -0.31512589475071      0.02772532613859
  N   -3.92512490215717     -1.36940884157271      0.20970117506235
  N   -0.30603725374306      1.26046015504845     -0.18031834022650
  H   0.28926741651801      2.05612833402119     -0.37710536986451
  N   -0.41460800374706     -1.07492369568980      0.14127892887634
  O   -2.11094606435655      2.64899457682999     -0.36970715019556
  N   -1.76380655045868     -0.88649219987655      0.11654645824100
  C   -3.78583866316672     -0.02677676385691      0.03301837315059
  H   -4.63152595307755      0.63816554132724     -0.04477545501745
