24
Coordinates from ORCA-job mp2_opt
  C   -2.44031989419478      0.30566342842773      0.03936468219120
  C   0.26604713218906      0.01592739388498      0.00890564448507
  C   -1.67875216079736      1.50943207469054      0.26387694031891
  C   -2.69629041861506     -1.85995285117808     -0.33474319337626
  H   -2.41386511044791     -2.88556752189429     -0.51197428239434
  C   1.73394510492792     -0.05578340251784      0.00992469763028
  C   2.48443508142468      0.90949399740980     -0.67020475418355
  C   2.37638049135548     -1.11610814522060      0.65460646576106
  C   3.87302477240717      0.82039295780509     -0.68847247695141
  H   1.98522136173992      1.70939281675339     -1.20776373601858
  C   3.76465260755644     -1.19517297020041      0.63545342728576
  H   1.77984797473820     -1.86242648201555      1.16621318406411
  C   4.51503187089421     -0.22796601248335     -0.03254053297095
  H   4.45244394856789      1.56423918640028     -1.22293395429556
  H   4.26309071175700     -2.01228820830596      1.14391319128613
  H   5.59666834990943     -0.29338582461532     -0.04529673898196
  N   -3.92472697525804     -1.36185835181182     -0.26665534296622
  N   -0.30281820669072      1.24468388385613      0.23686056628475
  H   0.30062882037320      2.03207362192923      0.44486261681157
  N   -0.41217028536591     -1.07701194420705     -0.18525619109128
  O   -2.10629800332127      2.63038166684935      0.46627211468410
  N   -1.76289487484206     -0.88709584253120     -0.15128312961537
  C   -3.78340226507863     -0.02773710181717     -0.03640757023697
  H   -4.62814503322888      0.63493963079213      0.06666337227950
