24
Coordinates from ORCA-job mp2_opt
  C   -2.44031811746372      0.30109531908891      0.04539894861398
  C   0.26508146081775      0.02012340561566     -0.00813440185107
  C   -1.68173178949195      1.50469822232220      0.28228331718845
  C   -2.69178476521943     -1.85937380003990     -0.36031906980303
  H   -2.40712688536422     -2.88142325806841     -0.55394511157374
  C   1.73543315971317     -0.04458310271795      0.00601427086624
  C   2.47502859057335      0.74436714215134     -0.88043679076979
  C   2.38389770986405     -0.94133144850761      0.85774422247184
  C   3.86374990005453      0.65502607102004     -0.89142457512469
  H   1.96359562377695      1.41292204407784     -1.56576998855384
  C   3.77288816561791     -1.02240606351125      0.84349279238181
  H   1.79477288006404     -1.56401698460900      1.52143599878870
  C   4.51361715722665     -0.22468261790730     -0.02750103191285
  H   4.43678030443137      1.26291342610116     -1.58196315991910
  H   4.27802034136902     -1.71096021163919      1.51090028463158
  H   5.59516348292098     -0.29192693937332     -0.03695151348783
  N   -3.92143343248536     -1.36669661730397     -0.27512266706129
  N   -0.30479468732341      1.24189017748373      0.25265019967362
  H   0.30188399879343      2.03116736263332      0.44483325828108
  N   -0.40815022567953     -1.07242730118228     -0.21364547626505
  O   -2.11140734818291      2.62259980981676      0.49596759913354
  N   -1.76071975040086     -0.88624439645755     -0.16969695769827
  C   -3.78293265027539     -0.03588129824378     -0.02580849730606
  H   -4.62923912333642      0.62199705925055      0.09390934929575
