24
Coordinates from ORCA-job mp2_opt
  C   -2.45316704833873      0.30964518067615      0.00897775763742
  C   0.26606700612479      0.04197905226127      0.00660738181405
  C   -1.69807096792766      1.53424915370325      0.08808237247072
  C   -2.68539249037432     -1.88752983288893     -0.10957818950344
  H   -2.39163086963433     -2.92357701709359     -0.16768807802796
  C   1.73631384164512     -0.04313923052130     -0.02002626247986
  C   2.53728613700756      1.09211061856069     -0.19096702355609
  C   2.34796915907268     -1.28931673873393      0.16879376605691
  C   3.92474411061286      0.97937741528282     -0.18445054894585
  H   2.10448446314029      2.06845730579664     -0.37739286581866
  C   3.73264660367895     -1.39391605150591      0.17241685300243
  H   1.72471821775273     -2.16302090076428      0.31270789981154
  C   4.52803159743971     -0.26083181348949      0.00139641768594
  H   4.53247841433974      1.86557182930084     -0.32542734601662
  H   4.19445029233019     -2.36335943556692      0.31958996932498
  H   5.60843707504501     -0.34512695739535      0.00881765143659
  N   -3.91878649322931     -1.39901514335072     -0.08507462194109
  N   -0.31988774329664      1.28165478982186      0.06869789431845
  H   0.25862222469260      2.10166284862462      0.19616734117978
  N   -0.41446080943561     -1.06639470376150     -0.06771618669069
  O   -2.13108749556886      2.66853524012161      0.16780876100596
  N   -1.76224531973672     -0.88847904561768     -0.05201728802983
  C   -3.79231166805770     -0.04535781368623     -0.01129604277221
  H   -4.64487723728234      0.61423825022608      0.02502638803754
