24
Coordinates from ORCA-job mp2_opt
  C   -2.45043518902311      0.30985721350802     -0.01303034148091
  C   0.26624623208824      0.03603164563087     -0.01020167028894
  C   -1.69337342435486      1.53105680587674     -0.11974289870083
  C   -2.68927761309895     -1.88353012120558      0.14961659644673
  H   -2.39873725334431     -2.91916467853741      0.22801025185542
  C   1.73556125898385     -0.04809911684320      0.01658754261246
  C   2.52949634589427      1.07797320794343      0.26387766299750
  C   2.35170091525626     -1.27880593143020     -0.24307554243128
  C   3.91730242784112      0.97019989365788      0.26184350742142
  H   2.08643592912338      2.03658340185201      0.51024108760254
  C   3.73697147530627     -1.37821090496601     -0.24232538529553
  H   1.73162766095494     -2.14330904762326     -0.44553834628496
  C   4.52611086391801     -0.25480552089255      0.00466882016748
  H   4.52132041289201      1.84707962730957      0.46398321464878
  H   4.20429811219382     -2.33479805300105     -0.44577084146393
  H   5.60688069204031     -0.33509315168468      0.00071451810304
  N   -3.92130330728510     -1.39157607386379      0.11889840985336
  N   -0.31585275224964      1.27591972680183     -0.09970301238370
  H   0.26682468414412      2.08924951341104     -0.25169195389978
  N   -0.41505119710383     -1.07004259398268      0.08830470275360
  O   -2.12535795907340      2.66388235795016     -0.22261130496001
  N   -1.76310032471036     -0.88892838387067      0.06929929006740
  C   -3.79062379900782     -0.04007058523417      0.01838933712968
  H   -4.64085519138521      0.62196576919369     -0.02850964446954
