24
Coordinates from ORCA-job mp2_opt
  C   -2.43349613197882      0.32453441677238      0.05241250329226
  C   0.26165713369937     -0.03131319003205     -0.04576929383188
  C   -1.63848385264602      1.50955466617709      0.26216083668408
  C   -2.75062744246740     -1.83187809698151     -0.32808747164881
  H   -2.49732550036663     -2.86316111592992     -0.51617893245738
  C   1.73235219244077     -0.12825285185349     -0.05099694029516
  C   2.38744265044918     -0.81452434321835      0.97346544086184
  C   2.46864120648427      0.54822824814615     -1.02796756198079
  C   3.77868854355906     -0.84917253686085      1.00001907163492
  H   1.80318458724135     -1.32490722972897      1.73111619707736
  C   3.85950751945685      0.50745082752482     -0.99665084345457
  H   1.95224211065027      1.08443414351368     -1.81776735675986
  C   4.51478833215341     -0.18878029965388      0.01758729901068
  H   4.28841433889812     -1.38566448195894      1.79182556491289
  H   4.43070183767821      1.01870411663321     -1.76282022949328
  H   5.59784012481782     -0.21688296110714      0.04176330169801
  N   -3.96481311338423     -1.30513647891966     -0.22536687974572
  N   -0.26959487515656      1.20827688002655      0.21188631685632
  H   0.36300027490769      1.98424486608036      0.37247185883843
  N   -0.44369108476674     -1.10670640602601     -0.22917630335099
  O   -2.03311997165399      2.64169032492916      0.46837845998242
  N   -1.79049174009908     -0.88273338660515     -0.16417102465008
  C   -3.78585065728620      0.02355921002222      0.00873688723343
  H   -4.61181448263070      0.70521167905031      0.13704209958590
