24
Coordinates from ORCA-job mp2_opt
  C   -2.44780098098053      0.30986671460664     -0.01807944768913
  C   0.26636798467477      0.03011952027678     -0.01228613622799
  C   -1.68885175006642      1.52747648182169     -0.15076923923342
  C   -2.69275425577756     -1.87902145203006      0.18894501955929
  H   -2.40520906635738     -2.91368853297956      0.28798264275233
  C   1.73487589775302     -0.05267582076822      0.01243041121896
  C   2.52095132003648      1.05966731454370      0.33512145549178
  C   2.35594768047938     -1.26381753710314     -0.31570997160412
  C   3.90903204111832      0.95686900043142      0.33772994846897
  H   2.06681214178800      1.99746517915795      0.63623165446765
  C   3.74182411128518     -1.35787115962598     -0.31114572355324
  H   1.73972580507172     -2.11620862853595     -0.57412894605110
  C   4.52393741667070     -0.24868436459515      0.01098166850489
  H   4.50875589350594      1.82084999417053      0.59929806447192
  H   4.21513661657030     -2.29823866348320     -0.56899088502377
  H   5.60498507623546     -0.32500502723456      0.01072658896832
  N   -3.92347031916534     -1.38402259548056      0.15158068969017
  N   -0.31189663252901      1.26979602666103     -0.12756255884955
  H   0.27528018065425      2.07641912065541     -0.29914269885645
  N   -0.41546385478126     -1.07333912597657      0.10744850206418
  O   -2.11953788555629      2.65837576955057     -0.27713283146568
  N   -1.76378207176505     -0.88925065046102      0.08592177424951
  C   -3.78896772688638     -0.03525433348584      0.02365300264184
  H   -4.63710362197830      0.62860176988409     -0.03420498399535
