24
Coordinates from ORCA-job mp2_opt
  C   -2.44780102250216      0.30980260614540      0.01807749301875
  C   0.26637454595048      0.03008067608520      0.01224471070031
  C   -1.68886120001018      1.52742610633212      0.15068295089894
  C   -2.69274748979366     -1.87909104934371     -0.18893580645987
  H   -2.40520968225919     -2.91375644374947     -0.28798218226188
  C   1.73487915787012     -0.05267773845170     -0.01247403669188
  C   2.52093328856063      1.05967190018033     -0.33518870175572
  C   2.35597981575567     -1.26377965906265      0.31574488263431
  C   3.90901460861420      0.95690724804770     -0.33778043242351
  H   2.06678388800389      1.99744708181718     -0.63634308648494
  C   3.74185785473510     -1.35780743303057      0.31119619950104
  H   1.73977018817536     -2.11616964120419      0.57418931010832
  C   4.52394834336673     -0.24861225668293     -0.01096230769519
  H   4.50871403711528      1.82089267333258     -0.59937883265312
  H   4.21518524163387     -2.29814838541490      0.56909771117487
  H   5.60499550837079     -0.32490759146951     -0.01070101899913
  N   -3.92346562113428     -1.38409677977632     -0.15154209133646
  N   -0.31190661410523      1.26975642536499      0.12749425603088
  H   0.27524540619132      2.07641883221916      0.29896895073855
  N   -0.41545609343523     -1.07338020312851     -0.10745678754723
  O   -2.11956334482619      2.65832587847585      0.27702525100363
  N   -1.76376651126225     -0.88931581072155     -0.08592839133302
  C   -3.78896076914809     -0.03532251823909     -0.02360717077678
  H   -4.63708653586700      0.62854008227456      0.03426913060913
