17
Coordinates from ORCA-job opt
  N   -0.09769622320932      1.51937488128395      1.18091988569613
  C   -0.39796803429330      1.02900269246161     -0.03243251530520
  C   0.57283274943408      2.67447993555399      1.20533432081684
  C   -1.13660510779539     -0.22582704803825     -0.07416611601423
  N   -0.09500579258698      1.60094963747843     -1.21132639349246
  C   -1.41482575542877     -1.10509713527222      1.01566183681660
  C   -1.67663114661573     -0.81538181277941     -1.18828151684008
  C   -2.10521069123560     -2.15186844201036      0.48433178672908
  H   -1.13707911281055     -0.95969586014805      2.04655712420992
  O   -2.27286631631091     -1.98617825827754     -0.85756835561766
  H   -2.52687828794106     -3.05206079422046      0.89902199260157
  H   -1.71171792747739     -0.52826122267543     -2.22544491692022
  C   0.56854676709983      2.75659696262471     -1.15690476241700
  C   0.93644562507866      3.34663810872984      0.04655216847967
  H   0.81122374185714      3.21791159816156     -2.10959242122958
  H   1.47794356454450      4.28310110867013      0.07839798742587
  H   0.81869094769079      3.06741564845750      2.18733989506074
