17
Coordinates from ORCA-job opt
  N   0.15629461374810      1.36921887736572     -1.12863112176464
  C   -0.38756132887145      1.02454219193240      0.05029149853373
  C   0.78761160460498      2.54555994517306     -1.16996142071275
  C   -1.05814015465106     -0.26918816349368      0.11359156506940
  N   -0.32390958089282      1.73889780357283      1.18752123253586
  C   -1.72762239413323     -0.95218453194570     -0.94631905251458
  C   -1.25917905705682     -1.02410093873244      1.23946558956024
  C   -2.26218654798679     -2.07483334090548     -0.39019936301970
  H   -1.78196571322054     -0.64457235160638     -1.97786423644901
  O   -1.97858999385735     -2.13282647862977      0.94090583747312
  H   -2.84709134818205     -2.89162012477640     -0.77847892652893
  H   -0.95867845276510     -0.90278605805989      2.26646716229913
  C   0.32734114162984      2.90222903609859      1.12083646232627
  C   0.90517721095206      3.36456115899817     -0.05492295616545
  H   0.38046591326877      3.47704657516732      2.04062517050814
  H   1.42378756054661      4.31345551209913     -0.09849159438089
  H   1.21744552686686      2.82770088774252     -2.12643584676992
