17
Coordinates from ORCA-job opt
  N   -0.62265676152607      1.85927756203816     -1.02963371674973
  C   -0.41261658243771      1.04567711590779      0.01830281006982
  C   0.08120081266050      2.99512365813182     -1.05071065942429
  C   -1.20157825363265     -0.19382047830843      0.06611450722341
  N   0.41416933341533      1.28402680962313      1.04914920588559
  C   -1.08048558464859     -1.33463331572968     -0.78256002136747
  C   -2.11933088777030     -0.53192213468436      1.02153872621522
  C   -1.95021188587024     -2.26411307663788     -0.29367760533942
  H   -0.44167446963319     -1.43699052945683     -1.64529244088462
  O   -2.59387961037562     -1.78397998841869      0.80357258699451
  H   -2.21377186221040     -3.26504642963337     -0.59125669001622
  H   -2.51906033431594     -0.00852553695833      1.87410094403152
  C   1.09679965676019      2.43356278016457      1.00810404365320
  C   0.96824475265260      3.33642707512168     -0.03821573693358
  H   1.76385751340184      2.62572899816111      1.84302927549441
  H   1.52862080651930      4.26219081358820     -0.06184187372102
  H   -0.08442664298907      3.64811667709113     -1.90232335513132
