17
Coordinates from ORCA-job opt
  N   -1.01091077770732      2.09607133841326     -0.52267620132058
  C   -0.43969032141524      1.05970874135836      0.11329195841061
  C   -0.29330133837877      3.22235186139982     -0.58300790908198
  C   -1.19263998146488     -0.19597868760342      0.15853489597399
  N   0.79355636065783      1.04397327577776      0.64648532361408
  C   -0.75075391781505     -1.48187243515575     -0.27538153859096
  C   -2.51628506921706     -0.33929507473540      0.47544508978862
  C   -1.82791184232718     -2.30920967427045     -0.16140204800703
  H   0.23967984953600     -1.74720498003282     -0.60877383845647
  O   -2.90913394018291     -1.62524167248932      0.30233863737588
  H   -1.98701171451199     -3.35493900835288     -0.36400030556383
  H   -3.26630389775422      0.35081530054610      0.82425425987700
  C   1.49473932341080      2.17736937312225      0.55572403822092
  C   0.98623765669616      3.31752611244577     -0.05279653168477
  H   2.49175549533597      2.16238696259706      0.98570949560158
  H   1.56217394056386      4.23151810562430     -0.11890481808974
  H   -0.76099882542599      4.06311846135538     -1.08644050806733
