17
Coordinates from ORCA-job opt
  N   0.74166453296632      1.10131060758106      0.72733744742105
  C   -0.35546828379230      1.01661403662298     -0.04141527881270
  C   1.35600779004777      2.28907577475977      0.75615170988872
  C   -1.05187345159892     -0.28178221882262     -0.07347800414133
  N   -0.89449159816647      2.01382868370508     -0.76075985134409
  C   -2.16573436105367     -0.68439793402759      0.72146644677919
  C   -0.73152649352812     -1.36177297292329     -0.84685228158506
  C   -2.43925036249041     -1.97243549352852      0.36508318205965
  H   -2.69150811722716     -0.09271523879415      1.45392229916505
  O   -1.57290984643913     -2.39629462617605     -0.59186627067387
  H   -3.17761228772693     -2.68970420661209      0.68176714976857
  H   0.03048594659158     -1.53686682277503     -1.58798312173855
  C   -0.26232939474163      3.19109955447271     -0.71114767179235
  C   0.88799905422835      3.38348663221671      0.04196915817210
  H   -0.69865153854236      3.99614811268004     -1.29467424668212
  H   1.39278222423359      4.34052659816950      0.07368469812280
  H   2.24561618723952      2.35497951345148      1.37519563539295
