17
Coordinates from ORCA-job opt
  N   0.87136391945341      1.02635627505450     -0.45280773817626
  C   -0.34530424736606      1.00621597172348      0.11649886263043
  C   1.47474685399798      2.21744063482750     -0.51882621538256
  C   -1.04082406046677     -0.28203473170725      0.16542431648996
  N   -1.01847161797765      2.07389597278118      0.57730611105813
  C   -2.34528035231746     -0.57658892006505     -0.33327346023167
  C   -0.50586340768246     -1.48059018044208      0.55309687379909
  C   -2.51162164039539     -1.92109949333022     -0.18370606107790
  H   -3.05981678610667      0.12603408148761     -0.73110430424642
  O   -1.39888879272581     -2.48266141618256      0.36253739973922
  H   -3.31621721973206     -2.60045418314797     -0.40956434136983
  H   0.44952248809033     -1.75866280850511      0.96584594545212
  C   -0.39888137463273      3.25352523611934      0.48209075425372
  C   0.87327532029521      3.38159931193243     -0.06016552874023
  H   -0.94498095089366      4.11549553354952      0.85348753699338
  H   1.36716933699497      4.34210892693926     -0.13048078834100
  H   2.46327253146481      2.23051878896542     -0.96795836285017
