17
Coordinates from ORCA-job opt
  N   0.94203083102575      1.00674782683363     -0.29052653486703
  C   -0.34639790554890      1.00304724205471      0.09285123970870
  C   1.54180747758892      2.19876840542538     -0.34028090053867
  C   -1.02782742426978     -0.28716853223605      0.13017173872679
  N   -1.08363423624620      2.08604315467398      0.39036800325954
  C   -2.39546172226758     -0.55248102790789     -0.18117244851029
  C   -0.44523772471587     -1.50718057520626      0.35212526612898
  C   -2.54260054904903     -1.90454818593752     -0.10324875138221
  H   -3.15578853330600      0.17477165476025     -0.41524373078743
  O   -1.36178917839617     -2.49737169682913      0.22748310608865
  H   -3.37453919548530     -2.57224328077942     -0.25170804213950
  H   0.56004196132726     -1.80559930835738      0.59773475599447
  C   -0.46272331197570      3.26613875417696      0.31468814326443
  C   0.87342081756653      3.38023791380111     -0.04569514652155
  H   -1.06087550093597      4.14077352212403      0.55225475584910
  H   1.36707109443142      4.34170999224190     -0.10197152567962
  H   2.58570410025664      2.19945514116171     -0.63943292859437
