17
Coordinates from ORCA-job opt
  N   -0.54121400310990      1.80405385876476     -1.07873493813137
  C   -0.40828981970987      1.04069856841848      0.01882037724452
  C   0.16028580357907      2.94085277060662     -1.10058206880792
  C   -1.20058941283314     -0.19250023636413      0.06776051913160
  N   0.33197498580399      1.33572993516325      1.10019565791474
  C   -1.15545780989299     -1.29347027938891     -0.83929003444351
  C   -2.02653007665016     -0.57884124063506      1.08778116424871
  C   -1.97875749487210     -2.24669556503335     -0.31782811911332
  H   -0.59763656492054     -1.35282603591728     -1.76016020643877
  O   -2.52145578728866     -1.81945087534122      0.85425123402468
  H   -2.26769833124377     -3.23439277342508     -0.63543022020004
  H   -2.34442790632670     -0.09695532842334      1.99729657031261
  C   1.01033686511631      2.48725763453953      1.05755128736177
  C   0.96396568480379      3.33674748646613     -0.03933695763625
  H   1.60679311999985      2.72564301160916      1.93302925931475
  H   1.52223641547923      4.26369824149102     -0.06412877410310
  H   0.05966133206556      3.55154982746942     -1.99279575067909
