17
Coordinates from ORCA-job opt
  N   -0.50218796656124      1.77572900537192     -1.09667656471271
  C   -0.40650209285843      1.03854819765183      0.02256904274714
  C   0.19798675809666      2.91312161049958     -1.12075574174783
  C   -1.19826986089302     -0.19288257253284      0.07276708083450
  N   0.29331342926393      1.36194347461025      1.12290752639085
  C   -1.19073261735497     -1.27188096724708     -0.86152376828799
  C   -1.98276907395703     -0.60347366505690      1.11634959944101
  C   -1.99350149858485     -2.23683310771770     -0.33026509324112
  H   -0.67052345933569     -1.30820461963644     -1.80525892358248
  O   -2.48841955026108     -1.83750945727209      0.87285549721473
  H   -2.29597046354595     -3.21679334868516     -0.65905117991355
  H   -2.26253648289170     -0.14299733924985      2.04913571728001
  C   0.96980348919295      2.51410013650424      1.07723978897250
  C   0.96215780387209      3.33660838288568     -0.04111920331176
  H   1.53325047878375      2.77558349540985      1.96787847430768
  H   1.51957655231823      4.26398127328487     -0.06824032188956
  H   0.12852555471636      3.50206050117985     -2.03041093050143
