17
Coordinates from ORCA-job opt
  N   0.62311773324347      1.15743818730697     -0.86579865392633
  C   -0.35740932119263      1.01804146570313      0.04056752462076
  C   1.23704581902054      2.34492941622108     -0.89890574172957
  C   -1.03872055158032     -0.28770801141620      0.09219620705865
  N   -0.77034689914223      1.95589979302419      0.90759799991221
  C   -2.13454013309451     -0.72589020661740     -0.70905331324279
  C   -0.76620116738474     -1.31496290695735      0.95098031551653
  C   -2.43761156812942     -1.98486529569785     -0.28013029672390
  H   -2.62510857143915     -0.17837665619154     -1.49807553526049
  O   -1.60898561708727     -2.35625568249679      0.73056320421339
  H   -3.17564813747669     -2.71205801284658     -0.57411409510509
  H   -0.03919947373403     -1.44636264035507      1.73507200546222
  C   -0.13724456191166      3.13295293537679      0.85492413364891
  C   0.89024971634099      3.38273492216737     -0.04439231572435
  H   -0.47134303907389      3.89005106533098      1.55787025895102
  H   1.39580719238797      4.33928852353019     -0.07792962134468
  H   2.02933958025358      2.45624310391807     -1.63297207632650
