17
Coordinates from ORCA-job opt
  N   0.84856592914511      1.03497769664093     -0.49844051151187
  C   -0.34556091085127      1.00750799473378      0.11595258760335
  C   1.45314169122470      2.22572295776556     -0.56532037422702
  C   -1.04371163332554     -0.28116247833553      0.16663204812635
  N   -0.99694647082024      2.06794821262185      0.62223070845302
  C   -2.32788238113509     -0.58658666875202     -0.37602568303113
  C   -0.52724718298623     -1.47019017471218      0.60395485906581
  C   -2.50275328191869     -1.92711728656146     -0.20089268259939
  H   -3.02535601077782      0.10613994664220     -0.81909533123240
  O   -1.41380644746877     -2.47618671923438      0.40205888671120
  H   -3.29947610879524     -2.61062303586200     -0.44163768086199
  H   0.41007491771975     -1.73975603872836      1.06142538955841
  C   -0.37692872211323      3.24750183299152      0.52666142479065
  C   0.87400903515532      3.38231108826120     -0.06135101990893
  H   -0.90523951856997      4.10356135695172      0.93553645617186
  H   1.36854407136847      4.34252209396134     -0.13158883889496
  H   2.42377202414875      2.24452922161584     -1.05170123821296
