17
Coordinates from ORCA-job opt
  N   0.18022736624396      1.37052751986617      1.13999430427352
  C   -0.39148987061033      1.02582101908169     -0.02546901859566
  C   0.81789792294171      2.54395295938175      1.16434767967971
  C   -1.07252165532626     -0.26242385986077     -0.07036140554896
  N   -0.35359259043943      1.73956282929679     -1.16438262362034
  C   -1.63847128885115     -0.98299067612317      1.02445176000037
  C   -1.37328669562174     -0.98290677613202     -1.19692506613693
  C   -2.22019995272824     -2.08949614483053      0.48375676286041
  H   -1.59780655526676     -0.70827705088841      2.06577109034676
  O   -2.06119282044515     -2.10326418804433     -0.86917469307789
  H   -2.76473436379724     -2.92146185303046      0.89771485907433
  H   -1.16735505076068     -0.82824567425636     -2.24253507420214
  C   0.30277746712362      2.90044533877973     -1.11478710761033
  C   0.91165099935954      3.36133736410164      0.04601204358661
  H   0.33489974922638      3.47471718881306     -2.03590163597316
  H   1.43497104621869      4.30815836474441      0.07593863976191
  H   1.27142729273305      2.82564463910081      2.10994848518179
