17
Coordinates from ORCA-job opt
  N   -0.58115398054716      1.83199695327573     -1.05666722971069
  C   -0.41022778923678      1.04307720290046      0.01708428487065
  C   0.12152910442282      2.96832238818442     -1.07729959378423
  C   -1.20159459240739     -0.19286590809394      0.06513991411667
  N   0.37229374491516      1.30960317864569      1.07554125332314
  C   -1.11875250861804     -1.31458379439869     -0.81318666336930
  C   -2.07204927120713     -0.55471455009147      1.05610600112819
  C   -1.96455716228110     -2.25575766998457     -0.30547315947649
  H   -0.52153249513668     -1.39651577762178     -1.70727493348399
  O   -2.55678002073290     -1.80132284370271      0.83139257546668
  H   -2.24053598322834     -3.25047809237609     -0.61250583183730
  H   -2.42999283347006     -0.05173892960584      1.93896962041836
  C   1.05271191866753      2.46025756743497      1.03467825255911
  C   0.96607230357822      3.33671955054107     -0.03817910201036
  H   1.68364481717747      2.67542648524178      1.89179183492238
  H   1.52527546188439      4.26316708958015     -0.06158982114923
  H   -0.01115071378002      3.60050715007081     -1.95012840198358
