17
Coordinates from ORCA-job opt
  N   -0.74958063634028      1.93655203968191     -0.91709519700575
  C   -0.41926062803610      1.05313025000815      0.03832019068750
  C   -0.04334188647915      3.07167543672469     -0.94640206915443
  C   -1.19351144707727     -0.19990461052973      0.08609595220035
  N   0.54681337644188      1.20829725221082      0.95726593585267
  C   -0.96339392157492     -1.39018953938252     -0.66562904805797
  C   -2.26255089813260     -0.46620808177398      0.89434699788861
  C   -1.91235461086373     -2.28281112667830     -0.26121983702683
  H   -0.19822371118107     -1.55495699376025     -1.40748595725058
  O   -2.71195753103880     -1.73063520825896      0.68840561384227
  H   -2.14182355415665     -3.29848046359521     -0.53634435697246
  H   -2.79152810187935      0.11482070640584      1.63135870475883
  C   1.23540890769482      2.35387911716255      0.90701052739111
  C   0.97532765523377      3.33447813311201     -0.04045183793419
  H   2.01549430379126      2.47859005730898      1.65190437983087
  H   1.53896574189926      4.25808758642592     -0.07153981295407
  H   -0.31128205830107      3.78477744493809     -1.72013818609595
