17
Coordinates from ORCA-job opt
  N   0.41158711219852      1.26383506297334     -1.04316552475670
  C   -0.37281949838002      1.02059468153834      0.02010746073573
  C   1.02792227038331      2.44890318896428     -1.06837114549916
  C   -1.02681339217148     -0.29099107869963      0.07440966725239
  N   -0.56019938870647      1.84158462023200      1.06665921572441
  C   -1.94223067847167     -0.84764569724982     -0.86848832121291
  C   -0.99267687651208     -1.16468151210952      1.12673113055563
  C   -2.36710861993398     -2.02662385456272     -0.33194905848308
  H   -2.22667064862346     -0.42974127420873     -1.82092697801832
  O   -1.78931138118633     -2.23431462072735      0.88207012384764
  H   -3.04771004926930     -2.79236956486980     -0.66409214554163
  H   -0.46832476016904     -1.16005757445193      2.06775446034230
  C   0.08178376225493      3.01372569256059      1.02248385578175
  C   0.89565349217431      3.37546041107081     -0.04227515409408
  H   -0.06885616991719      3.67570390539564      1.86991641671565
  H   1.40564064151195      4.32977525989076     -0.06901302608013
  H   1.65333518481803      2.64794335425373     -1.93345097726948
