17
Coordinates from ORCA-job opt
  N   0.19785030653421      1.35140932507606     -1.11940664613504
  C   -0.38566515139637      1.02381864779071      0.04552166584281
  C   0.82530665132669      2.52986588466012     -1.15844775871084
  C   -1.04994387153163     -0.27421190158907      0.10747736104181
  N   -0.36195540903334      1.75544489534870      1.17309135045167
  C   -1.76117263358871     -0.93607059969992     -0.93852007363551
  C   -1.21506764956648     -1.04672452725953      1.22686030411150
  C   -2.27960472827510     -2.06668594290572     -0.38296909942693
  H   -1.85180865497698     -0.61117231825344     -1.96228667306667
  O   -1.94806494202219     -2.14854136473948      0.93558253919905
  H   -2.88165767210178     -2.87444742303605     -0.76380737505019
  H   -0.87892855135628     -0.94323814246417      2.24479187720590
  C   0.28768988939631      2.92031894686666      1.10986857054341
  C   0.90235553918955      3.36672157159654     -0.05304468153623
  H   0.30859185145904      3.50920646690311      2.02200730633936
  H   1.41878070089478      4.31693721276261     -0.09416460694781
  H   1.28649332504829      2.79846926894285     -2.10415606022629
