17
Coordinates from ORCA-job opt
  N   -1.06042489791574      2.13979934054432     -0.40242064444050
  C   -0.44083130832464      1.05736989004066      0.09856422392328
  C   -0.34110414481833      3.26424082437333     -0.45148448330809
  C   -1.19984990279081     -0.19006037865938      0.13478415480953
  N   0.83672521398234      1.00014377275472      0.51072202023425
  C   -0.72019566180071     -1.50245307918241     -0.15705534388114
  C   -2.55123570519662     -0.31311994033974      0.32135780224158
  C   -1.80783769474620     -2.32106723668620     -0.10140464069256
  H   0.29933386296357     -1.78525857638386     -0.36336971602677
  O   -2.92941992956868     -1.60838274171076      0.19642606763354
  H   -1.95138039407155     -3.37850717633742     -0.24689286925864
  H   -3.32875946760274      0.39913856664227      0.54102081136540
  C   1.53732487633980      2.13456830555134      0.43260140233355
  C   0.98510909314785      3.31680064219661     -0.04260254057503
  H   2.57054879898883      2.08590052430953      0.76319127303801
  H   1.56159211911129      4.23099175343470     -0.09963884712912
  H   -0.84639485769765      4.14099450945231     -0.84539667026730
