17
Coordinates from ORCA-job opt
  N   -0.92757630583206      2.05222879466224      0.68902200816123
  C   -0.44202108775721      1.06172694170348     -0.07692955349690
  C   -0.20916638530392      3.17961793532892      0.72558149757222
  C   -1.19603256467430     -0.19787915304417     -0.10128294697048
  N   0.71057854887122      1.09008522173413     -0.76642611457313
  C   -0.76228722925524     -1.46975843431902      0.37910767955404
  C   -2.50832598926850     -0.35598456609456     -0.45257210983511
  C   -1.83296328591975     -2.30498847413119      0.25720852905839
  H   0.21846483293625     -1.72349368946377      0.74857308160232
  O   -2.90235409657451     -1.63869068421695     -0.25480575390893
  H   -1.99307689214145     -3.34590618806762      0.48251472353478
  H   -3.25104863423155      0.31965136487229     -0.84300829764590
  C   1.41525043677261      2.22342854889336     -0.70005989154433
  C   0.98901751559816      3.31936017315051      0.03879306055770
  H   2.34666746031570      2.24445204979959     -1.25784093768483
  H   1.56655289300159      4.23366619155991      0.08404011436870
  H   -0.60848021653704      3.98358296763285      1.33648491125022
