17
Coordinates from ORCA-job opt
  N   0.45483451885768      1.24439595849608     -1.01804001487300
  C   -0.36961344283503      1.02005106998970      0.01854514931371
  C   1.07038968483029      2.43011733717716     -1.04216895587806
  C   -1.02672133534879     -0.29200673540961      0.07188285911044
  N   -0.60151119949277      1.86194550421133      1.03890913755883
  C   -1.98103082902114     -0.82585782566671     -0.84510430692947
  C   -0.94736082000963     -1.19217816652935      1.09854487721331
  C   -2.38357683333097     -2.01824721450162     -0.32057276945435
  H   -2.30642041168476     -0.38487647321608     -1.77377842308861
  O   -1.75515206123373     -2.25566340337677      0.86197309581510
  H   -3.07764263519188     -2.77598206884535     -0.64308298989579
  H   -0.38289294206414     -1.21201396652853      2.01589910777418
  C   0.03886707800130      3.03529349181138      0.99631261796318
  C   0.89515954969847      3.37691386380616     -0.04136390151355
  H   -0.14808144734892      3.71435917633855      1.82271310271983
  H   1.40440243481320      4.33168323926922     -0.06683668674441
  H   1.72955069136081      2.61316821297442     -1.88543089909134
