17
Coordinates from ORCA-job opt
  N   0.99350090114842      0.99723992481472     -0.02528025491666
  C   -0.35087079368334      1.00271827933219      0.01314837128428
  C   1.59175890480626      2.18903321093467     -0.03354784886231
  C   -1.01921864680139     -0.29133754209796      0.02265033608849
  N   -1.13311935399069      2.09346163385941      0.04354324233679
  C   -2.42427803996071     -0.54166161785031      0.06092118635512
  C   -0.41241768540324     -1.52094148061786     -0.00372615177881
  C   -2.56254976250127     -1.89646358133603      0.05466203050361
  H   -3.20876247859338      0.19639915734194      0.08880453314391
  O   -1.34394734187196     -2.50454912784079      0.01552648824527
  H   -3.41279906703443     -2.55740240856639      0.07392788474018
  H   0.61883882231082     -1.82888345145160     -0.03539893415913
  C   -0.50726572984738      3.27363344475558      0.03440072470837
  C   0.87611991133728      3.38029033357315     -0.00430572351371
  H   -1.14150520453254      4.15471320756500      0.05902381778463
  H   1.37245315216074      4.34194648641466     -0.01136440885745
  H   2.67726241245680      2.18290153116962     -0.06458529310257
