17
Coordinates from ORCA-job opt
  N   0.49800405275387      1.22353104584770     -0.98785516895801
  C   -0.36620640593036      1.01935562076229      0.01996091463455
  C   1.11278321678891      2.40988864639424     -1.01251586002425
  C   -1.02779361767572     -0.29235857902819      0.07281825387923
  N   -0.64320852643958      1.88388398885979      1.00934746962502
  C   -2.01980567133070     -0.80217339989818     -0.81734164677873
  C   -0.90200118887616     -1.22200254089791      1.06747905308427
  C   -2.39919824745640     -2.00958392403884     -0.30982428586187
  H   -2.38570766441678     -0.33499856542682     -1.71774501024036
  O   -1.72020071201607     -2.27923698625126      0.83693930802354
  H   -3.10558275045255     -2.75947816192716     -0.62377205561563
  H   -0.29692265675623     -1.26815740802641      1.95761408861979
  C   -0.00469828627359      3.05843147534196      0.96640291638547
  C   0.89425186804942      3.37838544974374     -0.04156490112324
  H   -0.22848879614930      3.75596772066557      1.76787347920043
  H   1.40249247576683      4.33370850456053     -0.06734435126410
  H   1.80548391041441      2.57593911331893     -1.83207020358609
