17
Coordinates from ORCA-job opt
  N   -0.64970647253542      1.89703592103878      1.01883420277223
  C   -0.41725401116999      1.05086413443687      0.00250418155804
  C   0.05651308876387      3.03225638843071      1.02023145380027
  C   -1.19956429901554     -0.19699443093426     -0.01876619270809
  N   0.44541975133228      1.24757421467812     -1.00698365412857
  C   -0.96160845633514     -1.38395358794954      0.73590961308826
  C   -2.26578515804824     -0.47312582483792     -0.82781970132115
  C   -1.90800307833713     -2.28194638456920      0.33770057988022
  H   -0.19533509070300     -1.54162546008630      1.47816379191611
  O   -2.71140784176477     -1.73725484565553     -0.61331927006179
  H   -2.13281765999126     -3.29738756639437      0.61745777216883
  H   -2.79471819845056      0.10093280513358     -1.57031299741355
  C   1.13407664579729      2.39409988994144     -0.98405697178498
  C   0.97515426780212      3.33487701982067      0.02406634303417
  H   1.83032541109256      2.55255575176027     -1.80203493774744
  H   1.53845661238907      4.25917084014339      0.03245219995808
  H   -0.13054551082612      3.71402013504329      1.84437258698937
