17
Coordinates from ORCA-job opt
  N   0.07409857817169      1.40691346251135     -1.14334495058111
  C   -0.39067712963324      1.02588205218141      0.05762928543691
  C   0.71413104664109      2.57850408494909     -1.18790034997408
  C   -1.07609304098777     -0.25855598819520      0.12294624728845
  N   -0.24853693619423      1.70421815765610      1.20998555946881
  C   -1.66229156081439     -0.98470319894307     -0.95744829783150
  C   -1.34674418254651     -0.97843801422325      1.25780919098455
  C   -2.22786309549733     -2.09163865727554     -0.40091394883227
  H   -1.64625133642956     -0.71191926694800     -1.99985881181686
  O   -2.03901818054053     -2.10123612993266      0.94827901487149
  H   -2.77785419033189     -2.92701884063090     -0.80056836547462
  H   -1.11615441146585     -0.82138179414961      2.29784936087165
  C   0.40560881105525      2.86480493562176      1.13799012691486
  C   0.91165230172335      3.36011613018441     -0.05770186123795
  H   0.52173075499086      3.41045423346776      2.06969535015931
  H   1.43518646454024      4.30610617607933     -0.10487374491707
  H   1.08227310731882      2.88899165764702     -2.16117480533056
