17
Coordinates from ORCA-job opt
  N   -0.79203995276132      1.95992919050550     -0.86919062595690
  C   -0.42241301838880      1.05545662272158      0.05129353066830
  C   -0.08453147278370      3.09432354481945     -0.90463999516732
  C   -1.19032690995744     -0.20174060231880      0.09977230814518
  N   0.58987089432460      1.18476935554171      0.92339442100299
  C   -0.92498951840895     -1.40589279206935     -0.61739167378513
  C   -2.30834636096676     -0.44680750995936      0.84597335080147
  C   -1.90060533270108     -2.28672865094567     -0.25238414825454
  H   -0.11815722578980     -1.58824419472700     -1.30932061190852
  O   -2.75023210125824     -1.71391930000320      0.63972971769235
  H   -2.11959775014536     -3.30609562405138     -0.52233002933871
  H   -2.87910236922469      0.15176396000851      1.53629040316849
  C   1.28068866898537      2.32849521477092      0.86603496717144
  C   0.97771754172113      3.33275642648117     -0.04328223856744
  H   2.09809320006674      2.43225953995675      1.57317162598052
  H   1.54303043739930      4.25513176810447     -0.08021679961095
  H   -0.38585673011099      3.82564305116468     -1.64850420204122
