17
Coordinates from ORCA-job opt
  C   0.76581098995943      1.12109417757180     -0.11857384291182
  C   1.37541265854354      2.44849307045002     -0.13915037735858
  N   1.60959374946127      0.09803458066936      0.10921386942434
  N   -0.54497647437532      1.02986998960328     -0.38020004378980
  N   2.35046213903322      2.78605336545538      0.75246757685934
  N   1.00973658485021      3.49505350226443     -0.87155558823630
  C   2.65679916352426      4.10158757823068      0.55681060197783
  H   2.81468479256453      2.13018967170811      1.36444883620271
  C   1.81281160115514      4.51751904004845     -0.45549575981424
  H   3.41043482315290      4.61219062469717      1.13307805726117
  H   1.74976386700088      5.49916653101524     -0.89835745761344
  C   1.07261334828494     -1.12514375651938      0.09094139179539
  C   -0.27251645731067     -1.33645612746521     -0.18161457501325
  H   1.74847051744994     -1.95218852703329      0.28606333128979
  C   -1.04841295947738     -0.20623865328220     -0.41244411361754
  H   -0.69583264089764     -2.33207225116755     -0.21104973628857
  H   -2.11015470291927     -0.28545081624633     -0.62598117016705
