17
Coordinates from ORCA-job opt
  C   0.97944563504914      1.00749170190790      0.16466313303291
  C   1.61556610450603      2.32475035987537      0.25201557721806
  N   0.06203159064820      0.70026365635373      1.09213400705076
  N   1.29928839385722      0.27259104474410     -0.91473071588745
  N   1.60209575628799      3.18645498989868     -0.80456814081001
  N   2.11462091373305      2.90266853080000      1.33724125489649
  C   2.15841991474133      4.36332241206945     -0.38936737307896
  H   1.31764131691350      2.94404801322001     -1.74247322638253
  C   2.46872622765035      4.16169912875791      0.94068177544898
  H   2.27325847137523      5.21069117929582     -1.04464909671831
  H   2.92673905744163      4.85957208469093      1.62382585583194
  C   -0.52222234208178     -0.49396672797958      0.96374533434438
  C   -0.23662484331756     -1.35471318888431     -0.08957943984555
  H   -1.25553030727039     -0.75291412414057      1.72151948312682
  C   0.68306988842947     -0.90823720429804     -1.02896921541279
  H   -0.72223801300937     -2.31739411900602     -0.18393460548301
  H   0.94041123504597     -1.50462773730539     -1.89895560733173
