17
Coordinates from ORCA-job opt
  C   0.78013430463758      1.10650260086463      0.16289579914324
  C   1.36215743879321      2.43726697168986      0.26518205633423
  N   0.37083349019002      0.50234501688200      1.28631249139916
  N   0.74825462303911      0.58827722694562     -1.08021775893155
  N   2.06297074379566      2.96510072290794     -0.77817205540864
  N   1.36236544825596      3.25943344251172      1.31192823771877
  C   2.52240046027833      4.18943013524683     -0.39467644905842
  H   2.15352417916171      2.50970107951764     -1.67582565768203
  C   2.07541835393528      4.34776677154980      0.90534626747198
  H   3.10809718959866      4.81836163070106     -1.04462403486531
  H   2.23545430396415      5.19174839544308      1.55816741667907
  C   -0.14464253316562     -0.71921335491350      1.13651682175392
  C   -0.24010845041813     -1.34671161782445     -0.10062072823377
  H   -0.48330828458457     -1.20984978102213      2.04423645061668
  C   0.23727660907705     -0.63925505005949     -1.19622183221082
  H   -0.65798348204483     -2.33953474936008     -0.20462137437318
  H   0.21185460548644     -1.05966844108054     -2.19700665035333
