17
Coordinates from ORCA-job opt
  C   0.78692006793848      1.09096749917544      0.01784882663565
  C   1.34913284613743      2.45057915769902      0.12439498360399
  N   1.07808836278726      0.23733533638464      1.01064996017902
  N   0.00237058900179      0.84482678966137     -1.04076796497519
  N   2.63571585050369      2.74839485128301     -0.20828794206460
  N   0.67901617938895      3.53612274763029      0.47734238622178
  C   2.80803866550346      4.09671559748125     -0.04014678736630
  H   3.34064029509422      2.08379201511808     -0.48927863184026
  C   1.58340197816834      4.56183231971496      0.38535497045130
  H   3.74768588135264      4.58625163135731     -0.23428647837317
  H   1.30962594518490      5.57623000614176      0.62842549388090
  C   0.51388420585943     -0.97289495218101      0.93255933149603
  C   -0.33389719415986     -1.32690652932387     -0.10848825741085
  H   0.74884544014982     -1.66660549452121      1.73390212080255
  C   -0.55503441151196     -0.36934611196907     -1.09020718444913
  H   -0.79614770828145     -2.30458933284196     -0.15566283040530
  H   -1.19358799311712     -0.57100553081002     -1.94475199638644
