17
Coordinates from ORCA-job opt
  C   0.83356242344309      1.08614022347388     -0.20033721734507
  C   1.42486544133633      2.43335640110307     -0.17088106189647
  N   1.61766729568971      0.08721253314991     -0.62945677991290
  N   -0.41319673930291      0.96902997973263      0.28368792575552
  N   1.71392388644730      3.07027508387406      0.99857879569976
  N   1.85832265870556      3.12438553407459     -1.21477791211336
  C   2.33566355658744      4.24917016993811      0.68821625471954
  H   1.44808476697609      2.75328826466264      1.91892885890730
  C   2.41242933172119      4.26015976273380     -0.68810667253782
  H   2.66151504987990      4.94522095006900      1.44301478335545
  H   2.83597903693548      5.02487242356196     -1.31976294330338
  C   1.06513031651822     -1.12958300613340     -0.63987984459896
  C   -0.23266778532647     -1.36004669420445     -0.20016485906827
  H   1.69319713698280     -1.93934046339017     -0.99851277840726
  C   -0.93606837095265     -0.26209570154296      0.27637935892939
  H   -0.66831300054855     -2.35086648434893     -0.21254304393382
  H   -1.94539600509255     -0.35947897675377      0.66421713575037
