17
Coordinates from ORCA-job opt
  C   0.83366288414486      1.08316563119288     -0.18133870763850
  C   1.42690322758124      2.43165704058692     -0.15399591927902
  N   1.63223424174615      0.07837499471222     -0.56812543051680
  N   -0.43469476276044      0.97493294595422      0.24320115669818
  N   1.77252486539184      3.05264090834484      1.00818351952712
  N   1.78860909258224      3.14708312228474     -1.20799630978137
  C   2.36283539965772      4.24462373991207      0.68403390426112
  H   1.57320970336803      2.71339577805527      1.93719119684792
  C   2.36032531845926      4.28050600265141     -0.69342336638565
  H   2.72287474119750      4.93158373495560      1.43153947622154
  H   2.73863502956817      5.06083940979374     -1.33456063754752
  C   1.07752021379862     -1.13753427632583     -0.59107605377251
  C   -0.23996366660233     -1.35935742602436     -0.20996411201215
  H   1.71834001825313     -1.95223698194128     -0.91409579570779
  C   -0.96132284484601     -0.25449820972524      0.22176009648147
  H   -0.67838766020966     -2.34876348676389     -0.23386404016287
  H   -1.98860480133033     -0.34471292766333      0.56113002276682
