17
Coordinates from ORCA-job opt
  C   0.69297707837174      1.14060560911449      0.08210040238190
  C   1.26551071622172      2.48996281714641      0.15050608555726
  N   0.66594956364450      0.42548147623680      1.21539895565725
  N   0.34709800549173      0.70767911989238     -1.14217642765222
  N   2.34873722102098      2.84107254902324     -0.59914147321630
  N   0.94279216367625      3.44922946370122      1.00751848375875
  C   2.71563349908429      4.10629248639143     -0.23384635111656
  H   2.73829570209113      2.28888386978343     -1.34899747960384
  C   1.82883328655910      4.46148031380752      0.76187065112073
  H   3.54604596015040      4.62029563925886     -0.68855917824718
  H   1.78775267909967      5.39070154281141      1.30797547956766
  C   0.16564957815152     -0.80928287916275      1.11678376920420
  C   -0.26299610868955     -1.34507709005562     -0.09185091358966
  H   0.12871033106659     -1.38674251420718      2.03554005123242
  C   -0.13104647719571     -0.53896986477981     -1.21445875385950
  H   -0.66205241983159     -2.34902830520462     -0.15804338323316
  H   -0.41318977891279     -0.89088423375721     -2.20202191796174
