17
Coordinates from ORCA-job opt
  C   0.93672031085739      1.02585284672944      0.03540752673505
  C   1.57150928407127      2.34419181605110      0.17844552935106
  N   -0.30120713095392      0.89978603090354      0.54022209242305
  N   1.67105939164292      0.05594497603035     -0.52687181680965
  N   1.08629359399656      3.45806659277056     -0.43904486228330
  N   2.71982992951311      2.59538801256522      0.79058371351199
  C   1.94822359580072      4.48793526119706     -0.17843772672634
  H   0.20758047262989      3.51699308938618     -0.93174752700394
  C   2.95053313939396      3.92879536771235      0.58588744661274
  H   1.78409747679367      5.48575933720880     -0.54972760407812
  H   3.81978332043463      4.41867787411835      0.99535999167955
  C   -0.84983675179451     -0.31721360794732      0.46082513571409
  C   -0.17163909825706     -1.39824067942718     -0.08606769856847
  H   -1.85373385934289     -0.42062975598174      0.86103168569571
  C   1.10493069641121     -1.15335613132338     -0.57735428870603
  H   -0.61717455607771     -2.38373153107059     -0.13018446415534
  H   1.69773118488077     -1.94252049892275     -1.02972713339207
