17
Coordinates from ORCA-job opt
  C   0.83989243929530      1.07531401212544     -0.14366425813750
  C   1.44039639074545      2.42349504943819     -0.12508359058020
  N   1.65747826423493      0.05493730351301     -0.43972220485647
  N   -0.46500960344181      0.99077596721259      0.15340565159241
  N   1.89751395639764      3.01273446036966      1.01414747232100
  N   1.64422253976953      3.19393663825772     -1.18158754698394
  C   2.41372593221765      4.23488884153523      0.67273555661677
  H   1.84174618880032      2.62342388108077      1.94299082095495
  C   2.24513302146016      4.32424480677160     -0.69107880501007
  H   2.84015243248439      4.90406438962466      1.40114096502625
  H   2.52406884290409      5.13942912575868     -1.33965548216693
  C   1.09422013639307     -1.15700218491561     -0.48433555864701
  C   -0.25600759377804     -1.35574827689675     -0.22653341209835
  H   1.75231944352064     -1.98476008303635     -0.72998535556913
  C   -1.00253402877231     -0.23308000266089      0.10565349171222
  H   -0.70283306331816     -2.34067750309301     -0.27157025837132
  H   -2.05978629891284     -0.30427642508494      0.34174251419734
