17
Coordinates from ORCA-job opt
  C   0.93862371125139      1.05179042980982     -0.21397178810210
  C   1.55559184729097      2.37106020281509     -0.19261028075680
  N   1.47494680748144      0.11160327851861     -1.00336058880865
  N   -0.10309592886945      0.89173242699601      0.62492229624048
  N   1.33192046449995      3.22041367273517      0.85003915476160
  N   2.42071832382374      2.88980779344786     -1.06054376973939
  C   2.06883791791844      4.34674135707083      0.63540047705520
  H   0.67577389815929      3.02994138658631      1.59464823004722
  C   2.73553289652563      4.11618367261753     -0.55486852294684
  H   2.06584264756215      5.18011467680561      1.31839973474823
  H   3.42141679587693      4.77561102878482     -1.06357447123791
  C   0.88050155126161     -1.08272532252349     -0.97379618873561
  C   -0.21341160916242     -1.35605000752167     -0.16022368105055
  H   1.30732150697086     -1.84538734889706     -1.61841018619910
  C   -0.66763615041431     -0.31772588146124      0.64240936693507
  H   -0.68159063201015     -2.33162146728244     -0.14479018814360
  H   -1.50659404816608     -0.44978789850176      1.31892840593275
