17
Coordinates from ORCA-job opt
  C   0.93998320342794      1.04946081564117     -0.22672110032724
  C   1.56161754560146      2.36938369493683     -0.19960395338120
  N   0.15213137036196      0.74409050340894     -1.26653804662244
  N   1.15178101869047      0.29045616007823      0.86474604755563
  N   1.74678478236627      3.02479725809135      0.98151785056683
  N   1.89701723734352      3.13495650519830     -1.23337276101895
  C   2.25690468919007      4.25785596203977      0.69805653639811
  H   1.60635151499835      2.60409838175718      1.88919965500757
  C   2.34067047613725      4.30120062671895     -0.68141561530584
  H   2.49883264552562      4.97448452586646      1.46536164313081
  H   2.69787012074947      5.11432282589610     -1.29385691549210
  C   -0.41675691065636     -0.46302056547305     -1.23234946632332
  C   -0.24179008181909     -1.34347098164851     -0.17067389183209
  H   -1.04646412476969     -0.71947711890191     -2.07906508766735
  C   0.55326133828778     -0.90344765139670      0.87938612881573
  H   -0.71513784488288     -2.31656944343939     -0.15498588119280
  H   0.72164201944783     -1.51742149877372      1.75891685768867
