17
Coordinates from ORCA-job opt
  C   0.74390691627472      1.13418698376074     -0.12114094266609
  C   1.34457998208706      2.46300865515480     -0.13186922623599
  N   1.58067455706941      0.12605726238889      0.18896167110639
  N   -0.54776231202294      1.02172520647219     -0.45805845624178
  N   2.39500266767190      2.75615117829590      0.68663832594917
  N   0.93092507766731      3.54173739894001     -0.79030050574773
  C   2.69550942886128      4.07633008035295      0.52231260519835
  H   2.89404426924695      2.06782976752330      1.23247555401275
  C   1.77384414740684      4.54018998362253     -0.39851868677823
  H   3.49922640720121      4.55791788505353      1.05427224228264
  H   1.68303667528498      5.54065743836508     -0.79184940871974
  C   1.05667091558066     -1.10216456344590      0.17401552451974
  C   -0.26831678625437     -1.33504843347694     -0.17061269672716
  H   1.72632713785285     -1.91629924488642      0.43409205940734
  C   -1.03773288866161     -0.21958070567585     -0.48185082782955
  H   -0.68117416819699     -2.33514706993457     -0.19392326596045
  H   -2.08406302706924     -0.31585182251025     -0.75604496556965
