17
Coordinates from ORCA-job opt
  C   0.97863704761111      1.02109529742128     -0.18160527970833
  C   1.61881034095343      2.34309838112577     -0.13872585652496
  N   0.00399269652022      0.84260402235820     -1.08433100722660
  N   1.36553634613410      0.14254479734846      0.75789288455405
  N   1.51086361571365      3.15626887552585      0.94982939695927
  N   2.22663476792055      2.96067660636028     -1.14173593849694
  C   2.11455573996634      4.34474371289363      0.64340086447033
  H   1.12573984681409      2.88650678586764      1.84283868262379
  C   2.55090204115917      4.19839178865428     -0.65669424068298
  H   2.17222763767102      5.16008199092648      1.34509161404037
  H   3.07876296314588      4.91919192893950     -1.26090313251587
  C   -0.57641743280576     -0.36090430946939     -1.09014553715346
  C   -0.22521425599600     -1.36060462066064     -0.19099685531941
  H   -1.35708534859444     -0.51383919620629     -1.82908214820122
  C   0.75503114748916     -1.04727698463515      0.74083667485029
  H   -0.70573279320694     -2.33041325851609     -0.20449835553535
  H   1.06745463950441     -1.76046681793381      1.49742823386702
