17
Coordinates from ORCA-job opt
  C   0.71559793188593      1.15004704257293     -0.11569406662624
  C   1.29479557734933      2.48539965100211     -0.09237709188468
  N   1.51674636756444      0.16921533313912      0.34397197522283
  N   -0.52662637796372      1.00231090473209     -0.59475717501769
  N   2.47380630889594      2.71355941188358      0.55278216180209
  N   0.79957439516972      3.60969440723438     -0.60506060138380
  C   2.76057077825608      4.04087131417865      0.43995007249545
  H   3.02043911555212      1.98326718575919      0.98789622462363
  C   1.70672207866652      4.57416329113671     -0.28134836699709
  H   3.64797149046170      4.48036717089237      0.86468894205877
  H   1.56562715138468      5.60181442941866     -0.57820763287374
  C   1.01157831538681     -1.06587966728827      0.32244920106349
  C   -0.26402664128268     -1.33344353040622     -0.15719349681402
  H   1.65372456383255     -1.85739302983567      0.69675814973838
  C   -1.00079092457919     -0.24471920237030     -0.61032434577999
  H   -0.66370510142345     -2.33893030872388     -0.17608965034412
  H   -2.00730502915677     -0.36864440332544     -0.99884529928326
