17
Coordinates from ORCA-job opt
  C   0.95277907792932      1.04532006418743     -0.20393330821438
  C   1.57352040809223      2.36226222029849     -0.18179664088849
  N   1.45949532153008      0.11615210190254     -1.02520378263841
  N   -0.07067691645883      0.87896241854703      0.65616590515012
  N   1.30541277769662      3.23365406494432      0.83168077578016
  N   2.46695359227485      2.86757540523371     -1.02918392235260
  C   2.04569359235756      4.35827285250788      0.62110090343366
  H   0.62933518782499      3.05020180217691      1.56012726581727
  C   2.75780545571998      4.10553978673488     -0.53818526696324
  H   2.01280861309175      5.20652020675926      1.28474401692527
  H   3.46001910460508      4.75716592514627     -1.03454229843416
  C   0.85963754116140     -1.07539434016889     -0.99783930691447
  C   -0.21412133710891     -1.35572399085509     -0.16008183803689
  H   1.26363331230612     -1.82952970245158     -1.66674863813253
  C   -0.64291738540466     -0.32676909310787      0.66824210437661
  H   -0.68758081969362     -2.32876846421984     -0.14767726391683
  H   -1.46709752592398     -0.46374125763546      1.36173229500890
