17
Coordinates from ORCA-job opt
  C   0.78137528580438      1.09293024017088      0.02347748356950
  C   1.34668954167513      2.45271509799216      0.12250831220431
  N   1.03394217836531      0.25794444648637      1.04196899088666
  N   0.04450966840320      0.82421450211942     -1.06370576988658
  N   2.61593048699503      2.75788520593774     -0.26480441635056
  N   0.70139656898155      3.52634811473499      0.54914532639307
  C   2.80098719401183      4.10044897452151     -0.06464146090916
  H   3.29988397974804      2.10391089905865     -0.61399101720779
  C   1.60247505498665      4.55383802810589      0.43960306281087
  H   3.73092771597225      4.59402386932930     -0.29230882138325
  H   1.34457519856041      5.56064600217928      0.72735315759035
  C   0.47130667814829     -0.95309175118607      0.96509578126322
  C   -0.33165432060859     -1.32851615491788     -0.10376218453320
  H   0.67312543234871     -1.63107842621719      1.78860248364735
  C   -0.50966072742420     -0.39172215872348     -1.11363834787522
  H   -0.79132793450368     -2.30740937160716     -0.15105408412707
  H   -1.10978100146431     -0.61138751798441     -1.99124949609249
