17
Coordinates from ORCA-job opt
  C   0.83591439365553      1.07941846667662     -0.16197175554038
  C   1.43226425492054      2.42826911848327     -0.13816843186237
  N   1.64569997422803      0.06745210587911     -0.50437140978785
  N   -0.45206723562492      0.98214278318400      0.19980401261181
  N   1.83393689790682      3.03354293607541      1.01379695886841
  N   1.71719620031951      3.17012661459203     -1.19681996952761
  C   2.38885717592232      4.24004249891850      0.67887937604135
  H   1.70488783850985      2.67014376971034      1.94594090977079
  C   2.30443890607260      4.30189673709321     -0.69458055654479
  H   2.78241293810723      4.91818859579305      1.41744343665851
  H   2.63437657264188      5.09902729923621     -1.34169380653704
  C   1.08733579991573     -1.14679604254783     -0.53910701957449
  C   -0.24783411549482     -1.35792444164185     -0.21912237450990
  H   1.73823311818801     -1.96752570896585     -0.82442867439732
  C   -0.98370492188504     -0.24479691032358      0.16443342905973
  H   -0.69008681552868     -2.34530763726357     -0.25427005128543
  H   -2.02715998185461     -0.32620118489909      0.45283492655659
