17
Coordinates from ORCA-job opt
  C   0.84630666193997      1.06996591578465     -0.10789217932335
  C   1.45991474870972      2.41140569098003     -0.11018733561630
  N   1.67562337889693      0.02605114287372     -0.25484125863739
  N   -0.48882661668025      1.01850680937953     -0.00044756050417
  N   2.07423730813575      2.94692960757149      0.98090728909940
  N   1.43194654669583      3.26989286618101     -1.11728976849506
  C   2.48199798335669      4.21200231000375      0.65036890502302
  H   2.23199377807341      2.47579532383150      1.85881218862307
  C   2.07376644199014      4.38844281229555     -0.65321808226086
  H   3.00180998752322      4.84999184597943      1.34537779324299
  H   2.20893967484873      5.25824105712645     -1.27629034182615
  C   1.10104175123041     -1.18050775008938     -0.31098130199755
  C   -0.27511452630522     -1.34768962487489     -0.23300791558304
  H   1.76980040499441     -2.02760365162584     -0.42837924875986
  C   -1.03789873911907     -0.19861007084430     -0.06756319288712
  H   -0.73143414621521     -2.32746803696776     -0.29277155403709
  H   -2.11940363807546     -0.24364724760494      0.01600356393946
