17
Coordinates from ORCA-job opt
  C   0.91978977099902      1.02999083880588      0.04412109942324
  C   1.55594379189855      2.35278940821743      0.17656466381868
  N   -0.27659763755756      0.87458027978127      0.63131025304660
  N   1.61701923639814      0.08799970327781     -0.60630844244572
  N   1.14422259160393      3.44394102621834     -0.52725499511405
  N   2.63264461945671      2.62341197451394      0.89820979897954
  C   1.98536161033542      4.47968392609998     -0.21997996357717
  H   0.33176046475586      3.48657229271081     -1.12381376736093
  C   2.89735371877354      3.94719356477013      0.66492813877951
  H   1.86871247834658      5.46262279568600     -0.64488937020103
  H   3.72492704261305      4.44774834650098      1.14207700135470
  C   -0.81580658417316     -0.34723306959589      0.55768299578323
  C   -0.17081347740730     -1.40215148310142     -0.07383168912733
  H   -1.78561250832302     -0.47517831033040      1.02855596000721
  C   1.06052575735471     -1.12634885995500     -0.65504063882941
  H   -0.60862415837999     -2.39126830440174     -0.11513090795413
  H   1.62389428330550     -1.89265212919814     -1.17860013658294
