17
Coordinates from ORCA-job opt
  C   1.05411787183651      0.99104726381127     -0.01721694748168
  C   1.69655301434013      2.29488515446161      0.05962964438114
  N   -0.29254705326825      1.01213029864848      0.01927812090551
  N   1.82942934781484     -0.09766533251510     -0.10692733268459
  N   0.94677774173166      3.43327061925422      0.05795047084401
  N   2.99726699553039      2.57351982986665      0.11492071539240
  C   1.79939861138336      4.49407201059701      0.12260846076904
  H   -0.06360464890227      3.43349436434714      0.03290975432091
  C   3.06465568385316      3.93414259637183      0.15628266424718
  H   1.45468140577388      5.51486561616559      0.13696357937836
  H   4.01117873824316      4.44941077612611      0.20843889732671
  C   -0.90464683313229     -0.17201862134064     -0.04434174626757
  C   -0.19822527587280     -1.36416565213492     -0.13694733317460
  H   -1.99001142353692     -0.15721911952070     -0.01748041601438
  C   1.18856832030330     -1.26638874331300     -0.16496176052885
  H   -0.70274587571876     -2.32031513716838     -0.18524105622611
  H   1.81385237962090     -2.15136692365719     -0.23726671518750
