17
Coordinates from ORCA-job opt
  C   0.81213304455359      1.09189982516478      0.17356085737517
  C   1.40121951327354      2.41864629562608      0.28023631578032
  N   0.32144759539492      0.52098849945669      1.28159578779258
  N   0.83225162906762      0.55299293786565     -1.06111819018625
  N   2.00285354072566      2.99394801454522     -0.79915105565954
  N   1.46623188147809      3.21073239579010      1.34838293757494
  C   2.47197254752727      4.21378812965984     -0.41394490269852
  H   2.04921445875308      2.55606911237736     -1.70888022384823
  C   2.12710875624860      4.32378002956311      0.92191105353063
  H   2.99130183388033      4.87452752363075     -1.08831440879325
  H   2.32515757820342      5.15012349768964      1.58679170718199
  C   -0.20370582079021     -0.69565677373593      1.12677919714597
  C   -0.24088319308934     -1.34639088994630     -0.10151725946639
  H   -0.60438604070933     -1.16090601898306      2.02254455037460
  C   0.30327963128732     -0.66611570188187     -1.18314989847275
  H   -0.66959279725998     -2.33409116832571     -0.20991352184574
  H   0.31909584145541     -1.10263570849635     -2.17721094578554
