17
Coordinates from ORCA-job opt
  C   0.73432837491620      1.12646244030372      0.14178721609626
  C   1.30987105915869      2.46311043687157      0.23368954518475
  N   0.45156339891357      0.47922722133761      1.28022790562174
  N   0.61780489354845      0.63524171041641     -1.10649248937125
  N   2.15070915410811      2.92258484939004     -0.73614718795676
  N   1.21337017847879      3.32911682789478      1.23830868299198
  C   2.59366818077582      4.15450241092681     -0.35392243089975
  H   2.32142665855840      2.44064633562894     -1.60759331032693
  C   1.99813421401763      4.38335509267250      0.87319461181446
  H   3.27217861982486      4.73774517227503     -0.95420043640773
  H   2.10057002745308      5.25382921368189      1.50222933945503
  C   -0.05032417478753     -0.74988126952091      1.14279606073654
  C   -0.24068289826547     -1.34706280063553     -0.09828065131191
  H   -0.29111740403233     -1.27400355242078      2.06289187662728
  C   0.13024843056180     -0.60351594842965     -1.21096517694637
  H   -0.64351350452033     -2.34706821585939     -0.19255356874251
  H   0.03646279129029     -1.00259092453304     -2.21636998656482
