17
Coordinates from ORCA-job opt
  C   0.92719121572063      1.02458592010826      0.06706000876533
  C   1.56730638886388      2.35032001148140      0.17582116941416
  N   -0.19275263541316      0.83472415731562      0.77941979468725
  N   1.52703178245143      0.12799565738512     -0.72919606608992
  N   1.26423344443092      3.38866854445605     -0.65114246856268
  N   2.48884962437305      2.69229678114919      1.06161059901554
  C   2.03415555488068      4.45808937452517     -0.27616809465259
  H   0.59358898492244      3.36775061710983     -1.40422842086808
  C   2.78352940674128      4.00264252857566      0.78542026962819
  H   1.98181592406576      5.40965206072769     -0.77817593398195
  H   3.51476448968404      4.54761993829691      1.36095514727171
  C   -0.73800753778477     -0.38436079306030      0.70653147560913
  C   -0.18381098638060     -1.39757328550353     -0.06473836635389
  H   -1.64299383128874     -0.54238175353474      1.28496872786798
  C   0.96154749750315     -1.08278180983985     -0.78420938122596
  H   -0.62863929484755     -2.38339928249882     -0.11000934695563
  H   1.44689197207755     -1.81214966669368     -1.42532111356859
