17
Coordinates from ORCA-job opt
  C   0.75430056444182      1.12802763750868     -0.12027862368763
  C   1.35969157619980      2.45590399635442     -0.13664916485566
  N   1.59544780630900      0.11242646656873      0.14931212921402
  N   -0.54742929750762      1.02605030241312     -0.42001052745539
  N   2.37328323007151      2.77037997039174      0.71964368465355
  N   0.96918070997793      3.51937015400405     -0.83196789904985
  C   2.67660949300121      4.08839593806046      0.54014699613340
  H   2.85626600932382      2.09730643624331      1.29773683928766
  C   1.79271386778367      4.52933919689583     -0.42717210606793
  H   3.45590162273539      4.58392170601141      1.09510240490102
  H   1.71541492122542      5.52086419834899     -0.84516846480057
  C   1.06517877662640     -1.11339219169634      0.13330807564382
  C   -0.27031609104447     -1.33568603560151     -0.17572237840925
  H   1.73854997007170     -1.93396231156235      0.36159769515401
  C   -1.04375246136438     -0.21283713275965     -0.44765440411194
  H   -0.68814918926060     -2.33367795813432     -0.20174219491561
  H   -2.09819250859060     -0.30073037304659     -0.69188306163366
