17
Coordinates from ORCA-job opt
  C   0.84194740660178      1.07269798794160     -0.10381416327052
  C   1.45802978822338      2.41150573303956     -0.11213289648382
  N   1.67447370009324      0.02503423037053     -0.20169193342451
  N   -0.49652734596660      1.02518841885395     -0.05125837567733
  N   2.12229439640780      2.92536427422728      0.96033404851357
  N   1.36833155809287      3.29705588125715     -1.09246685782483
  C   2.50455952813210      4.20090318101023      0.64163552553897
  H   2.33673092184591      2.42904693975642      1.81208630211209
  C   2.02729172741119      4.40732952559806     -0.63427380850226
  H   3.05526803792165      4.82547011953905      1.32498046444237
  H   2.12503660188226      5.29357506798823     -1.24100279020873
  C   1.10040881224799     -1.18183019400545     -0.25570359020239
  C   -0.27806182878047     -1.34562881245971     -0.22991811602300
  H   1.77158154149039     -2.03180942666593     -0.33105854686571
  C   -1.04438678070399     -0.19219335742547     -0.11856785113868
  H   -0.73373064327079     -2.32571847831924     -0.28930606225293
  H   -2.12854642162872     -0.23428809070626     -0.07924334873229
