17
Coordinates from ORCA-job opt
  C   0.69983854631243      1.14040017728782      0.11438785577657
  C   1.27255100888173      2.48317505112022      0.19303046246922
  N   0.54541977498042      0.45784818449129      1.25719414791919
  N   0.48312508598668      0.67437927645465     -1.12900584332999
  N   2.24195646898694      2.88130170585814     -0.67932033362862
  N   1.07320190207705      3.39376706622729      1.13926428753669
  C   2.65888617284291      4.12452912237218     -0.29961850384294
  H   2.50989293732937      2.36839650271759     -1.50707035123542
  C   1.91888271779318      4.41992045335899      0.82928167729233
  H   3.42025489316642      4.66749762210959     -0.83463558891040
  H   1.95806800530718      5.31767352043269      1.42610062119474
  C   0.05178366135303     -0.77702190611029      1.13748340815735
  C   -0.24587978800876     -1.34684563786881     -0.09507783062459
  H   -0.08819453776555     -1.32860499508128      2.06230780158654
  C   0.01016805199105     -0.57210290340525     -1.21855797044513
  H   -0.63935965922558     -2.35178701803836     -0.17639622872135
  H   -0.16589724200851     -0.95082622192648     -2.22076761119418
