17
Coordinates from ORCA-job opt
  C   0.90881542831273      1.04531136726838      0.18899772191565
  C   1.52341196781956      2.36235290077938      0.29476641815717
  N   0.18792046749717      0.59618628426401      1.22510211678622
  N   1.07605180050602      0.42695079940367     -0.99578281993395
  N   1.81593697717076      3.08022218651464     -0.82678169850174
  N   1.78596541987009      3.06045653969465      1.39640992602784
  C   2.31392905504758      4.28613556454685     -0.43146539471085
  H   1.73389969864862      2.71244142420879     -1.76438553289882
  C   2.28395445429672      4.24924578795063      0.95107752086382
  H   2.62682021381890      5.04181242902898     -1.13291965813608
  H   2.59741263655110      5.02065764409026      1.63715116195149
  C   -0.36963465407518     -0.60629098048513      1.06955014169452
  C   -0.24367455137609     -1.34514357452694     -0.10148664752997
  H   -0.94669913614060     -0.97836678352875      1.91091362294675
  C   0.49250907641555     -0.76659555039565     -1.12708892683650
  H   -0.70652002500085     -2.31694626152036     -0.21369910382654
  H   0.62460117063792     -1.26672777729344     -2.08175884796899
