17
Coordinates from ORCA-job opt
  C   0.85927213482879      1.06960301370734      0.18407810020800
  C   1.46157337921026      2.39035617490985      0.29375144132311
  N   0.24905277847783      0.55592234434758      1.26030975527782
  N   0.95730846266654      0.49347167577204     -1.02984478366768
  N   1.91126594277940      3.03697049487041     -0.81882924618184
  N   1.62288524442918      3.13669451041650      1.38423627536251
  C   2.39506386499234      4.24972436125386     -0.42911019992481
  H   1.89735006937341      2.62895748455450     -1.74337368051392
  C   2.20378010363624      4.28732295107068      0.94103630882931
  H   2.81345638037986      4.95780821302943     -1.12524676051442
  H   2.45816325382006      5.08686985284519      1.61936232354245
  C   -0.29087136302383     -0.65387902427322      1.10217280421018
  C   -0.24218864945614     -1.34569644237518     -0.10302275148492
  H   -0.78291869563960     -1.07543120958546      1.97370407722808
  C   0.40102518273966     -0.71278237222588     -1.15871464475826
  H   -0.68724165801930     -2.32570416847997     -0.21535405765178
  H   0.47772556880530     -1.17850785983768     -2.13655596128383
