17
Coordinates from ORCA-job opt
  C   0.72695827890154      1.14398077403502     -0.12001447656063
  C   1.31719791002147      2.47565067108289     -0.11585267562154
  N   1.54948022697820      0.15017309314880      0.26756685827509
  N   -0.54164088792216      1.01216987239308     -0.52960491242086
  N   2.43582033088391      2.73213775255992      0.62026882997886
  N   0.86106784535439      3.58021205527244     -0.70109734035227
  C   2.73055019928877      4.05581996970913      0.48295237455738
  H   2.96141697756609      2.01833724075042      1.10553681417852
  C   1.73866105522119      4.55917678432914     -0.33985138323433
  H   3.57900553061767      4.51362642514165      0.96413072688463
  H   1.62167336912465      5.57492402562312     -0.68426364082384
  C   1.03622603960828     -1.08197502648591      0.25133769493015
  C   -0.26528334043644     -1.33399203822321     -0.16252014629274
  H   1.69450824772039     -1.88403212336786      0.57123254799958
  C   -1.02160795951433     -0.23280395942582     -0.54801178319548
  H   -0.67003000458552     -2.33746225536745     -0.18237417293182
  H   -2.04930381882810     -0.34424226117537     -0.88083631537071
