17
Coordinates from ORCA-job opt
  C   0.69346791314033      1.14248715973882      0.10402608644838
  C   1.26584381175305      2.48744328199864      0.17844340712309
  N   0.58175468840744      0.44924048572345      1.24548091437040
  N   0.43771875436736      0.68585037166695     -1.13491889606208
  N   2.27504513139958      2.86776646346699     -0.65590614938859
  N   1.02859065883847      3.41364046785840      1.09955417958787
  C   2.67889297340905      4.11671392411717     -0.27880324374575
  H   2.58047505780639      2.34280634396432     -1.46264725612576
  C   1.89061169791704      4.43304675077656      0.81035618118992
  H   3.46500650030499      4.64837692382089     -0.78874787524591
  H   1.90564518524322      5.34065902712034      1.39311457323279
  C   0.08819279945642     -0.78651992751200      1.13261864931173
  C   -0.24977960286537     -1.34652866026916     -0.09392402602532
  H   -0.01762588774423     -1.34651451214104      2.05689652618565
  C   -0.03405985656092     -0.56181012433893     -1.21886318219327
  H   -0.64288511824223     -2.35203482607031     -0.17032870728490
  H   -0.24219770663059     -0.93292314992109     -2.21775118137824
