17
Coordinates from ORCA-job opt
  C   0.96521950142317      1.03545612279670     -0.22053444719299
  C   1.59433494937573      2.35465389532898     -0.18667790724872
  N   0.11205785594356      0.77431490053577     -1.22035673706687
  N   1.22629396424538      0.24134508829670      0.83369911403279
  N   1.67662241285601      3.05959469508946      0.97760151746961
  N   2.00706875399165      3.08107293550976     -1.21926359820705
  C   2.20443211181411      4.28444888218822      0.68644689875531
  H   1.47032275296480      2.67943502382767      1.89026259983346
  C   2.40109591619118      4.27250120631707     -0.68119748362350
  H   2.37949189411586      5.03288670554052      1.44138737798529
  H   2.80506314422276      5.06200334727329     -1.29535066819857
  C   -0.46681928384095     -0.42866133605129     -1.19461854310460
  C   -0.24027500766202     -1.34558270684023     -0.17459608982440
  H   -1.14822825507115     -0.64983750951472     -2.01064575595761
  C   0.61564462868413     -0.94711515551918      0.84355026501727
  H   -0.72221022777979     -2.31458952638816     -0.16413155221430
  H   0.82458588852556     -1.59022656839056      1.69302400954487
