17
Coordinates from ORCA-job opt
  C   0.96224483210493      1.02337827177782     -0.07018553334877
  C   1.59662590242843      2.34503295031106     -0.08931496153155
  N   -0.30954012274012      0.97170085726029     -0.50173006467780
  N   1.71834965587400     -0.01585280679188      0.30923372402078
  N   1.04060099002397      3.41692694418396      0.54385140806687
  N   2.79915442073427      2.63928362488546     -0.56633333315409
  C   1.91024446392665      4.46509107176232      0.43071744415431
  H   0.11078545097031      3.43908302828171      0.93633721548024
  C   2.99091703784466      3.95824093971876     -0.26236012760779
  H   1.69887145310224      5.43814632610005      0.84189979846588
  H   3.88985368527094      4.47817041566843     -0.55397060934841
  C   -0.87240218223222     -0.24040216547263     -0.53555589329910
  C   -0.17611753113960     -1.38746175239325     -0.17875751307006
  H   -1.90319859155608     -0.28446640336599     -0.87359935784843
  C   1.13633197957477     -1.21642851333448      0.24543821566221
  H   -0.63410850184314     -2.36698298284765     -0.22680355460928
  H   1.74608705765597     -2.06175880574398      0.54973314264500
