17
Coordinates from ORCA-job opt
  C   0.84722002555504      1.06962817071793     -0.11586852120755
  C   1.45726079887832      2.41359440640346     -0.11149072629020
  N   1.67335245919084      0.03174149219337     -0.31234848874703
  N   -0.48163478544220      1.01033749060896      0.05079220064211
  N   2.02024761679658      2.96859800400648      0.99716363364309
  N   1.49933871679425      3.24408022435949     -1.14088376480978
  C   2.45966663927961      4.22118329512241      0.65846199533344
  H   2.11438913852279      2.52324917931724      1.89727533506910
  C   2.12609614293283      4.36860729013082     -0.66941497206086
  H   2.94852738295546      4.87078912867976      1.36504570885011
  H   2.30424420450360      5.22117759753490     -1.30531419814085
  C   1.10050335169939     -1.17566997693659     -0.36777513244991
  C   -0.27051223998685     -1.35013183723450     -0.23353177804117
  H   1.76657820075963     -2.01788820470242     -0.52769043046921
  C   -1.02931551556809     -0.20788456063858     -0.01307136669518
  H   -0.72549366415354     -2.33067387081741     -0.29093985110489
  H   -2.10576947271767     -0.25903882874533      0.11819035647878
