26
Coordinates from ORCA-job mp2_opt
  C   2.23212007730462      0.79346358292578      0.12459748486261
  C   1.10907968378828     -0.07063672864433      0.00998363717655
  C   1.23865464539621     -1.43493672261038     -0.26540733957454
  C   2.52530157588849     -1.93527586302490     -0.39844841890722
  C   3.65419777472527     -1.10194891561170     -0.26641440477006
  C   3.52110423260614      0.25281578575079     -0.01104667990385
  H   0.37163022695738     -2.07548774454214     -0.38124185330566
  H   2.66409851566649     -2.98938920044642     -0.61080698076459
  H   4.64345329223208     -1.53233219294793     -0.37355032141610
  H   4.39587570459650      0.88893013562431      0.07581665940161
  C   -1.35708578265780      0.24430052153387      0.07479772448428
  C   -2.24711863938951      0.88669752717208     -0.78691817347698
  C   -1.78346947185313     -0.82884783662330      0.85951799189514
  C   -3.56762295438820      0.45190686768391     -0.86068099841951
  H   -1.89328544621100      1.70634735588671     -1.40237500732760
  C   -3.10056612871888     -1.26866454698081      0.76476679459767
  H   -1.08599462954470     -1.29499477214857      1.54635854437248
  C   -3.99595070283095     -0.62816797132232     -0.09072370454938
  H   -4.25838582182141      0.95056014803309     -1.53091319868307
  H   -3.43156720222611     -2.10150590580235      1.37449698213566
  H   -5.02266079708152     -0.96838415255246     -0.15592214276414
  C   0.35500585274832      2.01214529750717      0.36582795960713
  H   -0.40003177633590      2.76575726653706      0.53500012842388
  N   -0.02549473274923      0.69865103813783      0.17368170768256
  C   1.72613131491772      2.10706676397948      0.35265123356874
  H   2.29675618898086      3.01081826248555      0.50369337565438
