26
Coordinates from ORCA-job mp2_opt
  C   2.24454484050416      0.76690817314539      0.08041185612844
  C   1.09524561320655     -0.06848696477931      0.04169621778714
  C   1.17046593765888     -1.44947379924158     -0.15579426992859
  C   2.43594477510752     -1.99756874127611     -0.30185611471458
  C   3.59280333636636     -1.19299030709750     -0.25222408404668
  C   3.51134377831838      0.17702664884216     -0.06439958868132
  H   0.27719597555885     -2.06354319612334     -0.19712374292609
  H   2.53740655401364     -3.06584878580310     -0.45679077512417
  H   4.56450334100299     -1.66004265269789     -0.36666823285754
  H   4.40894220009989      0.78599179183382     -0.03421968043624
  C   -1.35321197175466      0.30278105636691      0.10741918247750
  C   -1.89843224794908     -0.50671402463806      1.10383573343242
  C   -2.10092838649934      0.64491656450882     -1.01919161984684
  C   -3.20830772183449     -0.96163198534140      0.97727966691634
  H   -1.29290853466349     -0.76252300496665      1.96636496312065
  C   -3.41544110640949      0.19934990149788     -1.13034531280400
  H   -1.64409905302129      1.25209341884200     -1.79310838648047
  C   -3.96890058906695     -0.60581707316692     -0.13576433148245
  H   -3.63714596500742     -1.58728788412143      1.75156375687808
  H   -4.00216407632424      0.46794475679016     -2.00120488054318
  H   -4.99010238300605     -0.95647015293300     -0.22891662361306
  C   0.40749877332224      2.04529179236077      0.32927976889720
  H   -0.32445552142860      2.82754692137340      0.46857194773758
  N   -0.01034888508169      0.73494289404700      0.21905996060100
  C   1.78068048688657      2.10278665469994      0.26319752458154
  H   2.37859983000078      2.99732099787805      0.35015706492732
