26
Coordinates from ORCA-job mp2_opt
  C   2.22651862148514      0.80216408838332      0.13466198585585
  C   1.11195839887167     -0.06792507208675     -0.01614575736236
  C   1.26338771638962     -1.42845336326551     -0.30239529379177
  C   2.55756433250410     -1.91827358646186     -0.39699002138835
  C   3.67574666846728     -1.07897073341322     -0.22270569891971
  C   3.52326031761318      0.27313754103709      0.03489043584640
  H   0.40875175494351     -2.07602156338216     -0.45938807978475
  H   2.70998422098415     -2.96948670904550     -0.61437717629040
  H   4.67104523379223     -1.50147480457941     -0.30089989174623
  H   4.38911623591076      0.91688604495464      0.14990201351416
  C   -1.36238761949344      0.23781224014068      0.04956356461307
  C   -2.30711003707890      0.94264702387582     -0.69889796274844
  C   -1.73591014086586     -0.91022668423721      0.75125358518780
  C   -3.62687771967642      0.50226285782844     -0.73420227727326
  H   -1.99741815524864      1.81549644350579     -1.26260643708409
  C   -3.05441682176448     -1.35251774473961      0.69512560621976
  H   -1.00176746221944     -1.42736202288805      1.35796855246500
  C   -4.00371264607980     -0.64803463598755     -0.04343443670545
  H   -4.35763685052838      1.05161324465710     -1.31664901743361
  H   -3.34227983692660     -2.24170796813975      1.24427053396731
  H   -5.03033028865033     -0.99266165414657     -0.07952850433608
  C   0.33858161658347      2.01185903245213      0.32112300378026
  H   -0.42293003293052      2.76095328837253      0.47962884319039
  N   -0.03156853215994      0.69824578410678      0.10369147773372
  C   1.70802893044982      2.11269516623711      0.35123980634110
  H   2.26980409562781      3.01864678682172      0.52098114614968
