26
Coordinates from ORCA-job mp2_opt
  C   2.21940390249065      0.81001949956183     -0.14719436413373
  C   1.11395842538153     -0.06483051941700      0.04016057856253
  C   1.28708607131948     -1.42144621754267      0.33604171065925
  C   2.58711568623913     -1.90206839171521      0.39054802018858
  C   3.69357076986828     -1.05800925700757      0.17324983980599
  C   3.52242892031902      0.29146840989037     -0.08561856492373
  H   0.44625747067532     -2.07446480450944      0.53576819903693
  H   2.75281482758877     -2.95019007893281      0.61315733221331
  H   4.69369335737441     -1.47340384060758      0.22188717148573
  H   4.37884711905347      0.94212336811957     -0.22864400481105
  C   -1.36749266872717      0.23431938262999     -0.02814405281887
  C   -2.35452670340715      0.97860102884443      0.62299350933349
  C   -1.69936946013254     -0.96810217259997     -0.65615187069957
  C   -3.67190953809850      0.53141141940185      0.62222447272090
  H   -2.08133973268564      1.88928469938742      1.14380610018313
  C   -3.01801845239167     -1.41375646000102     -0.63900650980294
  H   -0.93763863370488     -1.52166788351938     -1.19132677905338
  C   -4.00818859021872     -0.66849708894943     -0.00191044527132
  H   -4.43288892291543      1.11433625290497      1.12829762144378
  H   -3.27118052374706     -2.34359395327417     -1.13546672846788
  H   -5.03352161281208     -1.01857055513021      0.00651574221342
  C   0.32341786322426      2.01314251502667     -0.26947379816461
  H   -0.44334767538026      2.75953707366140     -0.41268174864868
  N   -0.03699136118027      0.69920154434949     -0.02785872522418
  C   1.68952817625878      2.11856326345450     -0.34679958114193
  H   2.24218028560828      3.02671576597398     -0.53388012468517
