26
Coordinates from ORCA-job mp2_opt
  C   2.19835418944433      0.82707285964655     -0.15558059961392
  C   1.12380418990710     -0.06781079188481      0.09991112347058
  C   1.36195095807364     -1.41887620728136      0.38434375913895
  C   2.67221810467893     -1.87191788605278      0.32171007462402
  C   3.73806549726831     -1.00634260975700      0.01550489718519
  C   3.51304153945899      0.34146171160196     -0.20754853024120
  H   0.56960533250425     -2.09413302912224      0.67817972990086
  H   2.87712962747301     -2.91626657391860      0.52897662686846
  H   4.74738040568443     -1.39953472496071     -0.02522305772116
  H   4.33783223698866      1.01782893751955     -0.40587524499218
  C   -1.37546781295532      0.21330062343171      0.02942334663461
  C   -2.43165452109958      1.04553716168954      0.42053132178014
  C   -1.65569305717035     -1.08825237025798     -0.39424466963011
  C   -3.74542072824195      0.60039811940323      0.33069717339339
  H   -2.22623404402043      2.03175131315523      0.81790143848764
  C   -2.97517575115457     -1.52730496489321     -0.47324594434008
  H   -0.85674546275301     -1.73114061398925     -0.73504675591711
  C   -4.02672860969348     -0.69071482183837     -0.11154539344823
  H   -4.55017106108166      1.26141402250795      0.63146760603932
  H   -3.17505786778956     -2.53361639203368     -0.82356274470440
  H   -5.05098989317309     -1.03804382001536     -0.17382607982073
  C   0.28767314762953      2.00431147016069     -0.09971033711051
  H   -0.48632554872486      2.75023994097173     -0.18155281527974
  N   -0.04708365473446      0.67973893968612      0.16227513542681
  C   1.63716848455672      2.13207229026341     -0.28150951581952
  H   2.16084629892444      3.05391141596769     -0.48476954431108
