26
Coordinates from ORCA-job mp2_opt
  C   2.23647815332248      0.78268619856266     -0.11207334735901
  C   1.10301583571692     -0.07111244466141     -0.02847626191839
  C   1.21146489329868     -1.43999837722026      0.23141798560386
  C   2.48964203260148     -1.95579577614255      0.38518554655321
  C   3.62961674115124     -1.13279674631274      0.28600310360705
  C   3.51661128220581      0.22606799825851      0.04263836655512
  H   0.33432051311520     -2.07159052650883      0.31823080747531
  H   2.61330127844784     -3.01379888933340      0.58727308730285
  H   4.61189470506687     -1.57496398944078      0.40841322595803
  H   4.40002722535239      0.85297664990527     -0.02057419808822
  C   -1.35658836111288      0.26852410204102     -0.10390144070014
  C   -1.81173292571850     -0.76252400403281     -0.92733903808233
  C   -2.20646897927200      0.85037323424366      0.83748021718800
  C   -3.12441655680865     -1.20952013085520     -0.80602023757182
  H   -1.13896177290991     -1.19064874009427     -1.66210327238523
  C   -3.52345776716850      0.41013889883811      0.93833904823275
  H   -1.82492728655926      1.63079314037730      1.48657782043962
  C   -3.98334752859560     -0.62193807356107      0.12180414566573
  H   -3.47983261296015     -2.00809323474604     -1.44701672629493
  H   -4.18550345794331      0.86349663061260      1.66712761452299
  H   -5.00668496153730     -0.96756518679446      0.20872992962038
  C   0.37593392868096      2.02187989247719     -0.37733297939953
  H   -0.36939961612085      2.78519391284861     -0.54671811330506
  N   -0.02015694712154      0.70985187643852     -0.21079829054309
  C   1.74768164530041      2.10358696516389     -0.33567889821391
  H   2.32976153956819      3.00333161993644     -0.46548609486324
