26
Coordinates from ORCA-job mp2_opt
  C   2.23898670384134      0.77646693783714      0.10323216638417
  C   1.10052120422145     -0.07210688718290      0.03848233668382
  C   1.19734330806719     -1.44430967952054     -0.20685843213617
  C   2.47074516919328     -1.96914551083583     -0.36927684020391
  C   3.61625768312804     -1.15134472987742     -0.29092372060924
  C   3.51417283503509      0.21046837669954     -0.05914584833103
  H   0.31464420166525     -2.07076752865554     -0.27454833757071
  H   2.58664906048126     -3.02993669428747     -0.56106493965260
  H   4.59462846420048     -1.60039695182716     -0.41952391726291
  H   4.40218216349021      0.83215751347859     -0.01031639065055
  C   -1.35505752302508      0.27860064856837      0.11389521986645
  C   -1.84018586148222     -0.69799906219638      0.98461965195365
  C   -2.17050620304821      0.80193565348066     -0.88990930338551
  C   -3.15168925720881     -1.14559393479676      0.85177807194304
  H   -1.18980782951602     -1.08518808824600      1.76120999668504
  C   -3.48685503598323      0.36262397950625     -1.00313926914137
  H   -1.76342573811487      1.53907792336092     -1.57329052540791
  C   -3.97807192195803     -0.61293948649961     -0.13679823160792
  H   -3.53158091430907     -1.90156517165799      1.52934454015283
  H   -4.12374794967475      0.77142403273078     -1.77913135938310
  H   -5.00065615617364     -0.95844393299571     -0.23306219602456
  C   0.38680921754944      2.02626708562023      0.37886727390667
  H   -0.35390577121372      2.79489181505309      0.54485649471798
  N   -0.01647428561905      0.71453506477061      0.23026184298130
  C   1.75867756304163      2.10144411809539      0.32107375200230
  H   2.34609887341202      2.99963250937773      0.43691596409022
