26
Coordinates from ORCA-job mp2_opt
  C   2.22316966794143      0.80618750091008     -0.14112076458349
  C   1.11284836962838     -0.06610146838720      0.02812482403227
  C   1.27473542083746     -1.42465248452878      0.31974103986571
  C   2.57190745682046     -1.91004051002104      0.39475095624989
  C   3.68460253610038     -1.06855760653766      0.19892177117033
  C   3.52309659123038      0.28218468198438     -0.05992733458465
  H   0.42659884247202     -2.07482533779804      0.49806014379415
  H   2.73069055227186     -2.95969443236628      0.61513544277793
  H   4.68234905225629     -1.48765051916074      0.26269164177234
  H   4.38450334893549      0.92918906859119     -0.18903577623100
  C   -1.36506312039442      0.23640723435818     -0.03887619338765
  C   -2.33218437587865      0.96216316145526      0.66023148986953
  C   -1.71628617499137     -0.94050994206706     -0.70344005185441
  C   -3.65069321344050      0.51777327776345      0.67757100578153
  H   -2.04162861353037      1.85512159440001      1.20208793226591
  C   -3.03480809082429     -1.38499784059712     -0.66657122118450
  H   -0.96737642001171     -1.47649754871971     -1.27412741075201
  C   -4.00583861133459     -0.65902922184680      0.02079422234460
  H   -4.39756633575562      1.08471169265681      1.22143371055011
  H   -3.30428261001276     -2.29578318927845     -1.18904953068997
  H   -5.03173084107646     -1.00689831677423      0.04326141767396
  C   0.33113243402182      2.01284819020191     -0.29641500180864
  H   -0.43301930344096      2.76053570661597     -0.44781838577675
  N   -0.03437340199387      0.69928235378514     -0.06632162610243
  C   1.69917798576418      2.11571652859872     -0.34996217002598
  H   2.25664385440543      3.02259842676200     -0.52870213116680
