26
Coordinates from ORCA-job mp2_opt
  C   2.18801925235342      0.83122315849089     -0.17125067868291
  C   1.12663910765608     -0.06611437492174      0.12578636619509
  C   1.37794692732386     -1.41235149694257      0.42017501833575
  C   2.68824595512828     -1.86001733468399      0.32781889715614
  C   3.74067411574280     -0.99295894112433     -0.01903282251692
  C   3.50310008410512      0.35065812085941     -0.25424297143494
  H   0.59552020925568     -2.08634863486958      0.74329659185435
  H   2.90462960394643     -2.90046688067462      0.54285792559810
  H   4.75047353602391     -1.38188601259771     -0.08246315706992
  H   4.31888572826187      1.02749038658208     -0.48535376735410
  C   -1.37164560556979      0.18425824055841      0.12888041525770
  C   -1.64378194096092     -1.09354968884431     -0.36886757880127
  C   -2.43835286933757      1.03656556675243      0.43640111852845
  C   -2.96066395504967     -1.52704593260109     -0.49764067218631
  H   -0.83562478212607     -1.73011163084229     -0.70007173477391
  C   -3.75006449978670      0.59703785860738      0.29679231558249
  H   -2.24545390591257      2.02576242813234      0.83258900885988
  C   -4.02106448828494     -0.68888876693195     -0.16542118097067
  H   -3.15263875859364     -2.52170720719073     -0.88379283078906
  H   -4.56253961346690      1.26737994769852      0.55277935933682
  H   -5.04410338506506     -1.02947939825217     -0.27046062997992
  C   0.27021182218160      1.99654012226173     -0.08030949071138
  H   -0.50977049815821      2.73690206604972     -0.15185239548291
  N   -0.04719283979967      0.67352798860920      0.20474419017916
  C   1.61411805758410      2.13031627221033     -0.29987420643381
  H   2.12462074254857      3.05282814366465     -0.53159608969589
