26
Coordinates from ORCA-job mp2_opt
  C   2.22949673718769      0.79784875389589      0.12931250419111
  C   1.11074814386547     -0.06948409072806     -0.00379179668279
  C   1.25145802506341     -1.43184481687076     -0.28500604139994
  C   2.54215089332422     -1.92660766595231     -0.39881949068563
  C   3.66569381668828     -1.09006721057886     -0.24527980536035
  C   3.52262053493022      0.26330783160115      0.01153221969051
  H   0.39056462657107     -2.07616969790378     -0.42155936766806
  H   2.68797072685940     -2.97924158813361     -0.61381603618172
  H   4.65818838117970     -1.51630841853713     -0.33781001220079
  H   4.39291526969477      0.90338167734497      0.11289406793622
  C   -1.35965619988922      0.24027029054123      0.06120678815496
  C   -2.27892333471621      0.91792243773174     -0.74131350645136
  C   -1.75807637211634     -0.87359706007308      0.80292145495407
  C   -3.59948330208386      0.48104163491576     -0.79517483487245
  H   -1.94825556914840      1.76668702926516     -1.32947310842575
  C   -3.07620231406227     -1.31407315661948      0.72774041862582
  H   -1.04085824130150     -1.36796191091766      1.44811228932550
  C   -4.00056755518219     -0.63738665089547     -0.06663818944237
  H   -4.31172953913458      1.00815432021182     -1.41959229642096
  H   -3.38446653602381     -2.17755828152829      1.30600498601212
  H   -5.02757525252280     -0.97917141184847     -0.11666583355130
  C   0.34649014392925      2.01142134023900      0.34451132007508
  H   -0.41200654623626      2.76241201739355      0.50916351972128
  N   -0.02858688954344      0.69786785574754      0.13930592233322
  C   1.71694786719033      2.10965228028186      0.35262199789954
  H   2.28304448547708      3.01452649141732      0.51357583042404
