26
Coordinates from ORCA-job mp2_opt
  C   2.24860025386966      0.77118761484843      0.03945159164325
  C   1.09763807195198     -0.06281860543070      0.01770443723793
  C   1.17061079584580     -1.45509923386657     -0.07145948097791
  C   2.43724591863660     -2.01592711410118     -0.13526758742149
  C   3.59589728544163     -1.21214156934058     -0.10946082876702
  C   3.51638338314883      0.16806803439519     -0.02269038988461
  H   0.27462225742165     -2.06664032840377     -0.09201781460899
  H   2.53889535339026     -3.09305620645160     -0.20647528265817
  H   4.56821380178313     -1.68911845716989     -0.15994924846458
  H   4.41631707739938      0.77411874535492     -0.00576999661112
  C   -1.35089008051150      0.29876312456919      0.04193293885599
  C   -2.03077054098710      0.29185541764947     -1.17514403852959
  C   -1.97308923034056     -0.14273406730979      1.20881271776108
  C   -3.34727237992408     -0.16023060066107     -1.22163232374498
  H   -1.51939579744679      0.63451335912732     -2.06794866312859
  C   -3.28755197108823     -0.59963456297367      1.15318124659634
  H   -1.41971317453366     -0.12486801584000      2.14121006185559
  C   -3.97482141085824     -0.60754340556592     -0.05971803152649
  H   -3.88087108675736     -0.16710469874756     -2.16502930413247
  H   -3.77601486497743     -0.94486959708962      2.05715026154890
  H   -4.99824528486693     -0.96171638334577     -0.09958227958985
  C   0.40754755418497      2.06494900304880      0.14693762534646
  H   -0.32668237528410      2.85513991116841      0.20733499187786
  N   -0.00877205659878      0.75146793646015      0.09501627335113
  C   1.78330114168745      2.11629423062746      0.12139956136355
  H   2.38059335941340      3.01449546904835      0.16318256260778
