26
Coordinates from ORCA-job mp2_opt
  C   2.21104291746164      0.81725091985991     -0.15509648357452
  C   1.11786017344513     -0.06471171253260      0.06647296221887
  C   1.31678405808152     -1.41808123624634      0.36420552603125
  C   2.62211911868112     -1.88784560162301      0.37281495178751
  C   3.71308707943912     -1.03626098926679      0.11438949974275
  C   3.51994589012058      0.31149217413762     -0.13760899095463
  H   0.49329624107982     -2.07856368746643      0.60487076058845
  H   2.80411874141617     -2.93350406733440      0.59434636723567
  H   4.71779895214966     -1.44301865217422      0.12853872254850
  H   4.36436372133620      0.97126040438402     -0.30753909692939
  C   -1.37140221690512      0.22598565674789     -0.00330528953583
  C   -2.39215299375905      1.00705883747879      0.54775755169924
  C   -1.67409817282896     -1.02060482349088     -0.55591114282228
  C   -3.70825303883110      0.55967478303812      0.50834398362267
  H   -2.14853753350198      1.94921873734148      1.02482526479890
  C   -2.99366339756855     -1.46426465707953     -0.57983854226042
  H   -0.89161981960921     -1.61003804675891     -1.01600339959439
  C   -4.01525473585623     -0.68006939447037     -0.04943767591637
  H   -4.49238981901008      1.17444331614659      0.93515703090306
  H   -3.22086222980685     -2.42729828379604     -1.02278203448697
  H   -5.04031431783448     -1.03026761903886     -0.07142580823147
  C   0.30712579582183      2.01001837209128     -0.20780486196630
  H   -0.46506348980072      2.75390885518146     -0.33009296687885
  N   -0.04164903109489      0.69361540257586      0.05239261522283
  C   1.66717693687373      2.12373222505946     -0.33174884847512
  H   2.20736217050071      3.03665808723590     -0.53171409477316
