26
Coordinates from ORCA-job mp2_opt
  C   2.24169071104140      0.77624265145475      0.08631606001526
  C   1.10515476467344     -0.07569876054834      0.03633761173529
  C   1.20177552916303     -1.45459560989779     -0.16608410087626
  C   2.47591068862444     -1.98339282249532     -0.30730423702399
  C   3.62046755985178     -1.16200252071815     -0.24779119923026
  C   3.51783580610144      0.20579510736872     -0.05422019975319
  H   0.31776765209800     -2.08149535480135     -0.21455426695089
  H   2.59404131114196     -3.04941392829775     -0.46595800545615
  H   4.59955447143919     -1.61414932628237     -0.35903777570796
  H   4.40624024304582      0.82767683622062     -0.01598304992262
  C   -1.34973108380264      0.26054752034139      0.08861437537460
  C   -2.10359813658179      0.62750469355438     -1.02582364721694
  C   -1.90849530215612     -0.52090646851196      1.09982250922033
  C   -3.42616391188644      0.20393431762467     -1.12794894260140
  H   -1.64334730874323      1.23108445427673     -1.80051111806843
  C   -3.22657235942786     -0.95384711236435      0.98229053764873
  H   -1.30464840970890     -0.77786292363705      1.96317847770529
  C   -3.98733321473252     -0.58864676957718     -0.12769230095820
  H   -4.01593299075034      0.48689278166889     -1.99217032363173
  H   -3.66416566825789     -1.56281588760456      1.76493504427934
  H   -5.01560884146215     -0.92015017651130     -0.21272319354734
  C   0.38404315830456      2.02555882399945      0.33201793513412
  H   -0.36047934439738      2.79579994729347      0.47157926614520
  N   -0.01337609381509      0.70961264178712      0.21254133875494
  C   1.75660318650430      2.10388972308165      0.27401010212005
  H   2.34035358373300      3.00685716257562      0.36974310281223
