26
Coordinates from ORCA-job mp2_opt
  C   2.22279547642826      0.80692598137267     -0.14263449985234
  C   1.11528052182167     -0.06789152127304      0.03096045758363
  C   1.28021496406379     -1.42582273084135      0.32313382586811
  C   2.57861855037057     -1.90813555548753      0.39651432093205
  C   3.68894462480734     -1.06409668333645      0.19764146385307
  C   3.52408404547223      0.28588761035913     -0.06324309144628
  H   0.43324788944270     -2.07744331773081      0.50239685224146
  H   2.74043936569891     -2.95720708789085      0.61748571758600
  H   4.68777018189973     -1.48081550913819      0.26020806631063
  H   4.38392646177785      0.93432426360447     -0.19557221697066
  C   -1.36249745357782      0.22480943379467     -0.02244986071075
  C   -1.72059933459179     -0.93838170743345     -0.70754256865335
  C   -2.32910791632438      0.95551036621675      0.67175383705584
  C   -3.04103461424062     -1.37721534240554     -0.67622847509970
  H   -0.97327851073791     -1.47105932319370     -1.28359648975462
  C   -3.64980872975159      0.51710161937567      0.68334644624141
  H   -2.03581738334050      1.84486061071991      1.21807080781845
  C   -4.00952943617499     -0.65226883422266      0.01602727454533
  H   -3.31515515553586     -2.27958877176666     -1.21074762349453
  H   -4.39579987474683      1.08551140529596      1.22687961569847
  H   -5.03733929450604     -0.99477256579555      0.03323169763433
  C   0.32649732153571      2.00753189481710     -0.29806318058729
  H   -0.44027553450698      2.75250824994162     -0.44954902850554
  N   -0.03422154199167      0.69332602859167     -0.06556963842234
  C   1.69435365445003      2.11425268879827     -0.35419593534746
  H   2.24864372225817      3.02225479762790     -0.53709777452391
