26
Coordinates from ORCA-job mp2_opt
  C   2.23884522691044      0.78011379722354      0.10143973799422
  C   1.10639905903784     -0.07619205360242      0.03670522081154
  C   1.21085419752964     -1.44956826841539     -0.19753636261880
  C   2.48765094579092     -1.96809164833523     -0.35276656808781
  C   3.62794430044223     -1.14241517847564     -0.27701923866190
  C   3.51778941525368      0.22026755797994     -0.05378804206832
  H   0.33085645191170     -2.08063379290051     -0.26064317540889
  H   2.61089811707644     -3.02956951968703     -0.53601756140946
  H   4.60928459645812     -1.58654475453238     -0.40004173922018
  H   4.40247767671534      0.84669992610904     -0.00506831032160
  C   -1.35066137515588      0.25342244552130      0.09472740545226
  C   -2.13949383117659      0.72474475430451     -0.95456106580906
  C   -1.87587453736189     -0.63231211324154      1.03602328935779
  C   -3.46190033436226      0.30209778983385     -1.06168647619057
  H   -1.70615087795046      1.40679080406174     -1.67791802165221
  C   -3.19349011610246     -1.06398088055002      0.91109509198333
  H   -1.24787535273285     -0.96802276277745      1.85395877677619
  C   -3.98893605647249     -0.59466132525862     -0.13354697747942
  H   -4.07775043121004      0.66692651632295     -1.87560774869302
  H   -3.60399229949679     -1.75331812139640      1.63992493018284
  H   -5.01683971841812     -0.92593505531705     -0.22330757200547
  C   0.37625442422065      2.01679476155460      0.37034730043533
  H   -0.37109807642768      2.78060272277061      0.52876766149723
  N   -0.01618761475803      0.70141319397392      0.22701450568768
  C   1.74803395089377      2.10206448696812      0.31413018821758
  H   2.32818625938475      3.00522171786557      0.42810275123073
