26
Coordinates from ORCA-job mp2_opt
  C   2.23385746945699      0.78892400339515      0.12042786273869
  C   1.10612502691692     -0.07015516715912      0.01391184896739
  C   1.22783060949550     -1.43588909720320     -0.25790002906018
  C   2.51140430632890     -1.94288548299143     -0.39528002227117
  C   3.64493594891228     -1.11466306567097     -0.27095832231016
  C   3.51956663764037      0.24152498245426     -0.01927931332321
  H   0.35717908882844     -2.07258005073116     -0.36762146143979
  H   2.64407713639272     -2.99829854722980     -0.60507100167466
  H   4.63160291115634     -1.55018104580639     -0.38118013812274
  H   4.39778022959341      0.87367012316381      0.06162448244611
  C   -1.35810160473468      0.25735559159899      0.08675125253524
  C   -1.78523919106850     -0.81589193228588      0.87072058447585
  C   -2.24105947434503      0.88546147629636     -0.79269379732104
  C   -3.10020863203111     -1.26064837526351      0.76874604157050
  H   -1.09092547840953     -1.27653053651948      1.56444334655015
  C   -3.55952704838280      0.44589982582926     -0.87379280024187
  H   -1.88386443939969      1.69983010329897     -1.41321694279588
  C   -3.99058484015815     -0.62960064724613     -0.09884149744411
  H   -3.43264907745395     -2.09201591954107      1.37970072597118
  H   -4.24566252652888      0.93500917443303     -1.55570374577110
  H   -5.01546082974417     -0.97409788829661     -0.17021188499790
  C   0.36391079386787      2.01762105169920      0.36554656182504
  H   -0.38681861370846      2.77561218062292      0.53449333294596
  N   -0.02383905324694      0.70533932347446      0.18002497376402
  C   1.73542511385696      2.10583100994052      0.34594847790942
  H   2.31121153676521      3.00730690973784      0.49086246507424
