26
Coordinates from ORCA-job mp2_opt
  C   2.19429379663440      0.82865651144161      0.16955427655778
  C   1.12554302579523     -0.06550058219354     -0.11111420167801
  C   1.36335616530095     -1.41290146348027     -0.40957742251326
  C   2.67367690157706     -1.86496943449779     -0.34617563781840
  C   3.73622406396374     -1.00126388565316     -0.02088899166054
  C   3.50914662672441      0.34252686610240      0.22372925663704
  H   0.56858793750366     -2.08333958455275     -0.71020510962653
  H   2.88223099923501     -2.90616028597721     -0.56532317097866
  H   4.74575607157739     -1.39390695296067      0.02020238361126
  H   4.33251256249131      1.01475968988562      0.44107795836709
  C   -1.36991289246337      0.18789951862389     -0.10406231618594
  C   -1.65083754281440     -1.07336559330772      0.42904625073850
  C   -2.42672069981102      1.02421345440544     -0.47957434122127
  C   -2.96973978212264     -1.50726792587792      0.53194297169944
  H   -0.84808099068338     -1.69326572862341      0.80414645773873
  C   -3.74102409367178      0.58515534781966     -0.36358712204851
  H   -2.21928754499950      1.99842255699125     -0.90542963976021
  C   -4.02120216300945     -0.68459894649859      0.13671401044132
  H   -3.17207102849916     -2.48842290052278      0.94630164116356
  H   -4.54789686214210      1.24081612125511     -0.67020898627481
  H   -5.04599427229349     -1.02549421028734      0.22229374774516
  C   0.27616807502139      1.99757233315281      0.12322824895054
  H   -0.50466512958919      2.73580066999613      0.21249350221165
  N   -0.04597787300431      0.67703959411252     -0.16062500202561
  C   1.62520996969017      2.12788630218718      0.31747698343703
  H   2.14178167958910      3.04781052845955      0.54590125249264
