26
Coordinates from ORCA-job mp2_opt
  C   2.21240180576206      0.81656381301803      0.15889583875623
  C   1.12014414861592     -0.06588832778839     -0.06485249436969
  C   1.31416247907251     -1.41840067389620     -0.36708393888656
  C   2.61944657791651     -1.88754099621613     -0.38811018822899
  C   3.71180607854722     -1.03591595169170     -0.13322536969803
  C   3.52127384310659      0.31011631131867      0.13018800064324
  H   0.48576068012864     -2.07698445099113     -0.59807891777424
  H   2.80082764895800     -2.93229408278602     -0.61453829028507
  H   4.71651226080409     -1.44239744853699     -0.15696965781425
  H   4.36750846744408      0.96733390561552      0.30117833120318
  C   -1.36514127506892      0.20704631679907     -0.02968515805800
  C   -1.68574648870657     -0.99704634130590      0.60241121887884
  C   -2.37571222393895      0.98412289344188     -0.60204099961663
  C   -3.00729812802398     -1.43329216677402      0.62686683711648
  H   -0.91027811051819     -1.56450514895196      1.10178974090133
  C   -3.69522034142420      0.54522599015909     -0.56077606868541
  H   -2.11946565286056      1.90909597128937     -1.10584324123431
  C   -4.01630443037607     -0.66693032911328      0.04702067081567
  H   -3.24895373838394     -2.36836435619768      1.11933483700717
  H   -4.47218690824392      1.15031424913835     -1.01378824458716
  H   -5.04408809875978     -1.00907731248540      0.07205371073432
  C   0.30345424890135      2.00279670234767      0.23660583799926
  H   -0.47209346833414      2.74193539286723      0.36798530714841
  N   -0.03972430452331      0.68777090619738     -0.02734794288122
  C   1.66537517603633      2.11916491709546      0.35245518430813
  H   2.20373375386921      3.03131521744708      0.56080699660730
