26
Coordinates from ORCA-job mp2_opt
  C   2.20056635554175      0.82517627668578     -0.16676969237873
  C   1.12418391999570     -0.06562656478469      0.09577974229487
  C   1.34797109103603     -1.41452510355510      0.39660904169194
  C   2.65755382525713     -1.87140879604824      0.36231378158826
  C   3.73016096137103     -1.01115418770879      0.06020958142703
  C   3.51436982239233      0.33309493529697     -0.19219556909351
  H   0.54139598290844     -2.08139295930033      0.67387428968879
  H   2.85773322429778     -2.91356836623355      0.58464889595624
  H   4.73882055477371     -1.40778515764992      0.04157902744207
  H   4.34534961295226      1.00067966367377     -0.39450402079207
  C   -1.36829414797088      0.19263620420663      0.07911000912021
  C   -1.66066012716104     -1.05083656432261     -0.48800473966716
  C   -2.41204485959048      1.01152360217671      0.52152159336784
  C   -2.98119587995594     -1.48478563830875     -0.56490236491546
  H   -0.86534243756353     -1.65403806302775     -0.90544595759765
  C   -3.72870000888837      0.57323819623300      0.42993373198695
  H   -2.18873554010731      1.96997771242016      0.97494005588286
  C   -4.02074269126090     -0.67868546628937     -0.10744278478381
  H   -3.19572716875031     -2.45144921993438     -1.00627516347407
  H   -4.52756450772296      1.21340884499789      0.78619755755603
  H   -5.04705705542379     -1.01954154051422     -0.17319796853484
  C   0.28376650116911      1.99855425363282     -0.16367375558177
  H   -0.49659655819071      2.73582356643625     -0.26869724244027
  N   -0.04428745435054      0.68011187918002      0.11600094330452
  C   1.63752856457624      2.12499109257854     -0.33197907426115
  H   2.16074102066525      3.04244340015915     -0.55508591778712
