26
Coordinates from ORCA-job mp2_opt
  C   2.22649655779763      0.80221037404616     -0.13470865043419
  C   1.11195261717160     -0.06789225486282      0.01613029960848
  C   1.26340529301516     -1.42841078615931      0.30241467947830
  C   2.55758805971388     -1.91820941331070      0.39702195994181
  C   3.67575659504138     -1.07889235612597      0.22271464152147
  C   3.52324630833587      0.27320490158240     -0.03492227638045
  H   0.40878314836060     -2.07599141450127      0.45943431900008
  H   2.71002263686942     -2.96941454420912      0.61443744984921
  H   4.67106493940492     -1.50137269389805      0.30091284568043
  H   4.38909404136106      0.91696125763200     -0.14995313938165
  C   -1.36239746521122      0.23778896557539     -0.04960419400469
  C   -2.30714307929594      0.94261963181259      0.69883131223697
  C   -1.73588525034790     -0.91027439644174     -0.75126953768626
  C   -3.62689610489236      0.50219782395584      0.73415074380962
  H   -1.99746898846390      1.81549770050745      1.26250530166102
  C   -3.05437726223761     -1.35260385859601     -0.69512619500374
  H   -1.00172560397840     -1.42741819257431     -1.35795712366730
  C   -4.00369484504499     -0.64812629968477      0.04341044889799
  H   -4.35766925381457      1.05154966986825      1.31657842068473
  H   -3.34222296185933     -2.24181454770922     -1.24424689585377
  H   -5.03029928390754     -0.99279285165635      0.07951202259144
  C   0.33853839340843      2.01186531370363     -0.32120580312746
  H   -0.42298278480954      2.76094429559985     -0.47973962001958
  N   -0.03158933196028      0.69825379058891     -0.10373102048578
  C   1.70798362439385      2.11272480439409     -0.35133599179218
  H   2.26973300094978      3.01868508046306     -0.52111599712450
