26
Coordinates from ORCA-job mp2_opt
  C   2.22314643691911      0.80629534041962      0.14114889203234
  C   1.11285950657783     -0.06604417015634     -0.02808109687518
  C   1.27481452253614     -1.42457401442858     -0.31975838173041
  C   2.57201157451739     -1.90988998186821     -0.39482306416101
  C   3.68466854302294     -1.06835979290684     -0.19899182256954
  C   3.52309773533145      0.28236829470183      0.05989051790373
  H   0.42671641628982     -2.07479317943709     -0.49808271281623
  H   2.73084231520724     -2.95952704779439     -0.61524822398850
  H   4.68243318155682     -1.48739726096831     -0.26282526745715
  H   4.38446767445891      0.92942409786596      0.18898924639419
  C   -1.36506838669084      0.23637064495440      0.03889896668300
  C   -2.33218798859896      0.96219479285187     -0.66013850333207
  C   -1.71628088389429     -0.94065016930421      0.70328510404628
  C   -3.65068292999714      0.51777413626186     -0.67757307403701
  H   -2.04163773796704      1.85523304067298     -1.20186303984321
  C   -3.03478766467149     -1.38517298035181      0.66631267731041
  H   -0.96737809594120     -1.47668523248798      1.27393566299483
  C   -4.00581522125625     -0.65913473823392     -0.02098092369803
  H   -4.39756331192032      1.08476013440174     -1.22137420802212
  H   -3.30424395950268     -2.29604206413153      1.18865561946016
  H   -5.03170146077564     -1.00701499247452     -0.04353126525699
  C   0.33105673569654      2.01285779852713      0.29656037257691
  H   -0.43311561719409      2.76050978976414      0.44804037105214
  N   -0.03439626291922      0.69928121372270      0.06644613862729
  C   1.69910051699515      2.11579533366504      0.35003469304058
  H   2.25654636221980      3.02269000673444      0.52877532166557
