26
Coordinates from ORCA-job mp2_opt
  C   2.21795336994927      0.81184891348845      0.15199393631577
  C   1.11777975330219     -0.06641146446568     -0.04870092338544
  C   1.29682498150993     -1.42138868354610     -0.34766589832094
  C   2.59884739818706     -1.89737878897263     -0.39502217856078
  C   3.70059566547319     -1.04996295274743     -0.16662414142353
  C   3.52321085564615      0.29774937754408      0.09761669779017
  H   0.45850472762483     -2.07605322393655     -0.55368837387940
  H   2.77038269214239     -2.94404383351421     -0.62023522022524
  H   4.70247188158216     -1.46180440331148     -0.21011769918178
  H   4.37671037962509      0.95002710272070      0.25059895451861
  C   -1.36379108468844      0.21599457128427     -0.00398993803520
  C   -1.70175069991193     -0.96766031424014      0.65651582224710
  C   -2.35390144829983      0.96993572222441     -0.63857968874435
  C   -3.02291938475135     -1.40549719717384      0.65367310806214
  H   -0.93898428451173     -1.51728828706402      1.19468370567954
  C   -3.67412439592879      0.53075766212786     -0.62321617158671
  H   -2.07978011834474      1.87727665897345     -1.16480275553976
  C   -4.01302799359206     -0.66021006347577      0.01608182799234
  H   -3.28005375061084     -2.32419927261822      1.16856136452783
  H   -4.43694657111657      1.11719069264382     -1.12247543818508
  H   -5.04092549265650     -1.00294697725584      0.02025289755893
  C   0.31495207540027      2.00539248301548      0.26896263467483
  H   -0.45665218085789      2.74701143219190      0.41108776240143
  N   -0.03705118154458      0.69129697648850      0.01794400032781
  C   1.68009056383297      2.11664781571381      0.35618123202506
  H   2.22625324253977      3.02663405390517      0.55331548294667
