26
Coordinates from ORCA-job mp2_opt
  C   2.23426935192143      0.78917781211391     -0.11815975647508
  C   1.10788860204664     -0.07271568480557     -0.02402355566178
  C   1.22796616987486     -1.43957132765233      0.24126072991088
  C   2.51078968143681     -1.94493884321857      0.39085590648850
  C   3.64390725479949     -1.11369608259265      0.28208321889580
  C   3.51938828492112      0.24309015496659      0.03272749083658
  H   0.35599697134823     -2.07731589755854      0.33529603244004
  H   2.64363230341953     -3.00103189331430      0.59707787069954
  H   4.63012418339619     -1.54778607093096      0.40171467675510
  H   4.39774004309175      0.87626609239369     -0.03813743779403
  C   -1.35459920208494      0.24718240622253     -0.08750581355778
  C   -2.21218943475331      0.84867016693594      0.83416311876646
  C   -1.81266624444681     -0.77820245614895     -0.91661334114378
  C   -3.53276972842029      0.41723180260812      0.92654189480926
  H   -1.83276581533916      1.63397021937777      1.47858629246433
  C   -3.12901502254836     -1.21625181235958     -0.80369906243511
  H   -1.13761040740732     -1.21211270327804     -1.64589180121924
  C   -3.99212742100679     -0.61738248214327      0.11307830925910
  H   -4.19949921631528      0.88311534831431      1.64306383503216
  H   -3.48541483476205     -2.01318686497928     -1.44618173483548
  H   -5.01865377832627     -0.95521037633399      0.19265662886386
  C   0.36255139474780      2.01247444421932     -0.38033836015440
  H   -0.38948625712212      2.76893355446379     -0.55067220163051
  N   -0.02237023586483      0.69825512436872     -0.20482464164136
  C   1.73385277748173      2.10495460332818     -0.34642346790415
  H   2.30808657991196      3.00847476600315     -0.48471183076888
