26
Coordinates from ORCA-job mp2_opt
  C   2.22699973567296      0.80137807889513     -0.13394995262701
  C   1.11265782897612     -0.06915969378440      0.01536288882652
  C   1.26354499860332     -1.42985506325206      0.30067903165535
  C   2.55764854514123     -1.91943414866998      0.39737690003085
  C   3.67589806207964     -1.07965358837299      0.22541437501044
  C   3.52369021306295      0.27249366092240     -0.03226219522760
  H   0.40838944106710     -2.07752946826214      0.45484847698205
  H   2.71006012598309     -2.97075453451841      0.61425991753737
  H   4.67116440189963     -1.50196111400380      0.30515569246425
  H   4.38970701878454      0.91624473805187     -0.14608275980183
  C   -1.36117314616852      0.23445102700151     -0.04634671016898
  C   -1.74064765405384     -0.90450490313773     -0.75959606139638
  C   -2.30208759763092      0.93736718065234      0.70846638621578
  C   -3.05991247566543     -1.34428953690571     -0.70245733652491
  H   -1.00951253301056     -1.41773204702271     -1.37334529381008
  C   -3.62285050606382      0.49984666044574      0.74462297541904
  H   -1.98836377279376      1.80565146213087      1.27699484355944
  C   -4.00481746957779     -0.64361078227242      0.04539226970833
  H   -3.35231487940599     -2.22723970023195     -1.25921470485074
  H   -4.35065409149166      1.04683062781977      1.33297134249182
  H   -5.03225606151469     -0.98576961933836      0.08182304527518
  C   0.33845959790694      2.00984648696792     -0.32417730349858
  H   -0.42342025547321      2.75844847063007     -0.48334573499828
  N   -0.03099882375585      0.69594244678137     -0.10823900883558
  C   1.70802330386780      2.11149356407775     -0.35196001040965
  H   2.26948999356072      3.01769279539592     -0.52141807302680
