26
Coordinates from ORCA-job mp2_opt
  C   2.23064933602630      0.79528666335502     -0.12698033314034
  C   1.10954180023970     -0.06978793656342      0.00081223333394
  C   1.24589730739702     -1.43294568960708      0.28005515287712
  C   2.53499099168827     -1.93088096553617      0.39794460962134
  C   3.66101190815905     -1.09662075417960      0.24998150210384
  C   3.52208440982822      0.25747203140269     -0.00537380618480
  H   0.38281149564949     -2.07541050209493      0.41169165106107
  H   2.67762284000906     -2.98420264353363      0.61170333595208
  H   4.65217604743001     -1.52529552821783      0.34551660433424
  H   4.39427665383602      0.89559031966620     -0.10271684314632
  C   -1.35966942826530      0.24544570821588     -0.06744069280809
  C   -1.76185562835277     -0.86363578608079     -0.81414856627400
  C   -2.27286966628849      0.91407801136105      0.74940043156037
  C   -3.07926241314144     -1.30543418149574     -0.73379538342956
  H   -1.04815914107477     -1.35288234540894     -1.46715091033507
  C   -3.59287924849556      0.47615041718415      0.80845372192623
  H   -1.93803914618654      1.75746170759330      1.34294544689381
  C   -3.99836338096794     -0.63607844145783      0.07280974538586
  H   -3.39090748361816     -2.16475129267408     -1.31643260783164
  H   -4.30089003689557      0.99671206211863      1.44310006625646
  H   -5.02482852143591     -0.97887730221507      0.12697242144537
  C   0.35101212723219      2.01325016805396     -0.34696587671606
  H   -0.40547538002902      2.76618601763356     -0.51214797306254
  N   -0.02750174683388      0.70012213219251     -0.14588674935584
  C   1.72176785542353      2.10855367991361     -0.35006604682279
  H   2.29042144866647      3.01243745037457     -0.50754013364468
