26
Coordinates from ORCA-job mp2_opt
  C   2.21107326813432      0.81713869278854      0.15505965493980
  C   1.11785604484957     -0.06477718510639     -0.06652769222878
  C   1.31672298929628     -1.41815550509806     -0.36425652383199
  C   2.62203782473072     -1.88797683786416     -0.37284524287934
  C   3.71303917571318     -1.03644154459711     -0.11439273504293
  C   3.51995465148874      0.31132231050618      0.13758960645273
  H   0.49320917271475     -2.07860151163936     -0.60493308562041
  H   2.80399249383587     -2.93364531541558     -0.59436857541823
  H   4.71773481527614     -1.44324051575092     -0.12853962850046
  H   4.36439964092886      0.97105065011500      0.30754151314701
  C   -1.37139468516683      0.22602303610254      0.00322162261938
  C   -2.39210496502172      1.00712928321198     -0.54786889397696
  C   -1.67414755009685     -1.02054762083140      0.55584148962506
  C   -3.70822424914562      0.55980060042728     -0.50846401584945
  H   -2.14844377642372      1.94927394349389     -1.02494358445690
  C   -2.99373184294383     -1.46415142543320      0.57976053277384
  H   -0.89169485692470     -1.61000315271824      1.01594992656468
  C   -4.01528365512236     -0.67992230890918      0.04933224334329
  H   -4.49232944046991      1.17459533682692     -0.93529751351443
  H   -3.22097511738613     -2.42716985579041      1.02271463306019
  H   -5.04035751585709     -1.03007976243712      0.07131445693986
  C   0.30720481758598      2.00998796251322      0.20773325827221
  H   -0.46495579726839      2.75391100663619      0.33000664069703
  N   -0.04162016063617      0.69359917296527     -0.05246682497398
  C   1.66725933824347      2.12364295755108      0.33170408675086
  H   2.20748037966546      3.03654758845304      0.53166965110792
