22
Coordinates from ORCA-job opt
  C   1.01626110425644      1.05960987545017      0.04166089974474
  C   -0.46603498056480      1.05373713269740      0.04275473720734
  C   1.67856736373808     -0.17444723473046     -0.02272100817489
  C   1.76378479477342      2.23937925049357      0.08383992893850
  C   -1.14570331149503      0.09710803376837     -0.72885176112048
  C   -1.23668283406753      1.98020104059362      0.75430114118508
  C   -2.53556500180185      0.05028913829475     -0.76384044584013
  H   -0.57591281955360     -0.59809677394700     -1.33534400532244
  C   -3.28598187561199      0.96791339482732     -0.03244987781741
  H   -3.03194347383246     -0.69655050484968     -1.37357809668560
  C   -2.62814008228830      1.93562846367216      0.72207012695025
  H   -4.36914041464521      0.93435336240580     -0.05636140517814
  H   -3.19813389851463      2.65998153800923      1.29326665637873
  H   -0.75853887058460      2.73928888187961      1.35442475052660
  C   3.06981369436930     -0.22074037870717     -0.04559711298182
  H   1.10555358697081     -1.09399288450005     -0.01304837493116
  C   3.81091699937802      0.95997262383963     -0.00797776990164
  H   3.57819094651002     -1.17791342257927     -0.08488827944943
  C   3.15505441597748      2.18823710439778      0.05852827732730
  H   4.89415995129209      0.92304394299492     -0.02724227654890
  H   3.72838365373713      3.10833143889287      0.08233152952641
  H   1.25369305195717      3.19666597709637      0.10732336616711
