22
Coordinates from ORCA-job opt
  C   1.00121891764214      1.00644609492661      0.01531052202105
  C   -0.47218514065467      1.01028170550268     -0.00875834267921
  C   1.69729886894633      0.18982453472355      0.91517150662011
  C   1.73235523624733      1.81068465665818     -0.86773003201385
  C   -1.16825375827556      0.98289020834398     -1.22347183274402
  C   -1.20281708810923      1.04575646361850      1.18549901718770
  C   -2.56031449243346      0.98569158236068     -1.24318167070331
  H   -0.61216004992156      0.93082134230723     -2.15384115308199
  C   -3.27802211845090      1.01951264098197     -0.04887179180562
  H   -3.08488803020887      0.95355128887041     -2.19167665541468
  C   -2.59482739274356      1.05096585945919      1.16555873851495
  H   -4.36190865540307      1.02252282977296     -0.06449740492491
  H   -3.14618792635320      1.08859196233300      2.09853651452288
  H   -0.67252657111039      1.10168152155340      2.13095647034990
  C   3.08932434565469      0.18057013634988      0.93407727751015
  H   1.14094219394118     -0.45863577494230      1.58413668633179
  C   3.80734865169134      0.98746047871768      0.05324585960199
  H   3.61357439367914     -0.46395689747157      1.63092979283985
  C   3.12435823962528      1.80283667829784     -0.84743051820119
  H   4.89122481185340      0.98062054123440      0.06833335604195
  H   3.67591266524260      2.43933458282630     -1.53044946469905
  H   1.20313089914106      2.46455056357544     -1.55324487527448
