22
Coordinates from ORCA-job opt
  C   0.99976229557205      0.98341122574958      0.01403943028843
  C   -0.47369951772471      1.01556212704944     -0.01167236803532
  C   1.69162615518104      1.18602521935110      1.21366527319508
  C   1.72947146014401      0.80257388874030     -1.16653198665495
  C   -1.16702107489960      1.93224494133062     -0.80799581288192
  C   -1.19606751443269      0.09604607067462      0.75892285850158
  C   -2.55984843352804      1.94273799169437     -0.81675148190873
  H   -0.60829315207437      2.64827148763551     -1.40228754919972
  C   -3.27269149646525      1.03238164970903     -0.03809167104423
  H   -3.08943222681117      2.66424355855586     -1.42903170427291
  C   -2.58840729299405      0.10510041434185      0.74637767742428
  H   -4.35667368176598      1.04204166163828     -0.04699471821801
  H   -3.13935123937454     -0.61570857050128      1.34038374746414
  H   -0.65108090179639     -0.64938548516508      1.33359242666166
  C   3.08405546581857      1.18338554192071      1.23603983361344
  H   1.12915339883967      1.35381188637315      2.12668541101874
  C   3.80237496989854      0.98871800556251      0.05763374681821
  H   3.60847752831895      1.34410800926939      2.17148850393507
  C   3.12185732667294      0.79818536989395     -1.14369644081312
  H   4.88627882192643      0.98700887650803      0.07513693225640
  H   3.67575022023050      0.64501374515625     -2.06329758653761
  H   1.19635988926412      0.64622438451181     -2.09901452161053
