22
Coordinates from ORCA-job opt
  C   1.00453288516429      0.98804774032769      0.01151683607776
  C   -0.47085440947189      0.99855266365533     -0.01658274958586
  C   1.71412035477643      2.19594013841295      0.01379041377137
  C   1.71860674905001     -0.21573577770915      0.03323711684807
  C   -1.18544246104862      1.91573723365027      0.76577296332675
  C   -1.18834253983794      0.09925589871467     -0.81476858027954
  C   -2.57698162207555      1.93473189113475      0.74839189267307
  H   -0.64261636327639      2.59698707011926      1.41273957502599
  C   -3.27963788742656      1.03674153388661     -0.05273035341103
  H   -3.11346528948970      2.64556203216468      1.36714997258425
  C   -2.58017924582695      0.11924976965731     -0.83404417957448
  H   -4.36347733864396      1.05134655132412     -0.06754340475006
  H   -3.11911056290284     -0.57803032911173     -1.46594269613325
  H   -0.65131129233701     -0.59994314063141     -1.44528280639673
  C   3.10591258343366      2.19835040823905      0.03960464933240
  H   1.16943133186400      3.13290080995231     -0.03467228151755
  C   3.80806932098521      0.99453659681658      0.06439364561598
  H   3.64357905912242      3.14008585849238      0.03192046593214
  C   3.11042757776083     -0.21200962122348      0.06120051489907
  H   4.89192519744036      0.99661853900972      0.08539366021181
  H   3.65113459679870     -1.15161736305945      0.08794633484560
  H   1.17628035594149     -1.15530850382246      0.05711001050423
