22
Coordinates from ORCA-job opt
  C   1.00264437982505      0.98498916518115      0.00705687602459
  C   -0.47252619795876      1.00706124109533     -0.01325873260218
  C   1.74295684085383      1.07314220942434     -1.17949710159788
  C   1.69923720166249      0.91540887108273      1.22127482769939
  C   -1.20837971053604      0.28254698436816      0.93482705096556
  C   -1.17473258316096      1.73461448396341     -0.98310773002158
  C   -2.59992945650451      0.29755997541016      0.92345650628108
  H   -0.68557544600530     -0.32142937818674      1.66852833128206
  C   -3.28554370702219      1.03457026360968     -0.03994998653352
  H   -3.14913690730321     -0.27583674827910      1.66204808353744
  C   -2.56645307590423      1.75029437453149     -0.99493059702048
  H   -4.36941471218312      1.04758463960154     -0.04913604512032
  H   -3.08973683027034      2.32809704092440     -1.74874457973059
  H   -0.62881219400728      2.30561899014737     -1.72519799098876
  C   3.13446113059328      1.07209899861419     -1.15446557900938
  H   1.22487554880143      1.10343653152710     -2.13195741025736
  C   3.81477572446045      0.99365868540129      0.05906978369178
  H   3.68797973874007      1.12796922747989     -2.08527909830502
  C   3.09080080158361      0.91591712403609      1.24704067987875
  H   4.89858637214545      0.99435898534020      0.07880370762986
  H   3.61003787316471      0.86791115180656      2.19783971448493
  H   1.14648520902559      0.89242818292075      2.15417928971165
