22
Coordinates from ORCA-job opt
  C   1.01191865192648      1.04570130794194      0.03342301472443
  C   -0.46695408495030      1.05907681726306     -0.00955867835180
  C   1.69589025202856      0.09788188932502     -0.73976933026649
  C   1.74087393988963      1.94356657084526      0.81869354221412
  C   -1.16500276421913     -0.15792530690133     -0.03456940652771
  C   -1.21178905712524      2.24383271176576     -0.00944248360828
  C   -2.55544294974291     -0.18910073458887     -0.07423913962054
  H   -0.60907855261095     -1.08839990488430      0.00870255330727
  C   -3.28216889760891      0.99947309033634     -0.08553954591231
  H   -3.07153879091388     -1.14273795441945     -0.08514127581718
  C   -2.60338566933014      2.21514808933038     -0.05077465337025
  H   -4.36545925601298      0.97864040804617     -0.11718341290382
  H   -3.15728701770643      3.14730164677970     -0.06136368781891
  H   -0.70714700069571      3.19958567664441     -0.00098162590486
  C   3.08710052071379      0.04908347705016     -0.72048617542584
  H   1.13650527335422     -0.57529545822997     -1.37951820184403
  C   3.80823607323145      0.94368156423567      0.06946664046180
  H   3.61062011188502     -0.68070786775316     -1.32826295050363
  C   3.13213120514403      1.89057020669241      0.83734351073300
  H   4.89144563847274      0.90462293387540      0.08493570641569
  H   3.68943213843150      2.58410873503110      1.45722525769418
  H   1.21370023583913      2.66389210161427      1.43563834232516
