22
Coordinates from ORCA-job opt
  C   1.00320031665775      1.02689136910784      0.02237305189005
  C   -0.47294585992937      1.01751699191757     -0.01061559662537
  C   1.74692349653725      1.69551997997984     -0.95968000555879
  C   1.70039869418818      0.31600172701575      1.00933669636929
  C   -1.21108690568693      0.91168602192265      1.17700215110854
  C   -1.17705851786875      1.13577522509374     -1.21642705699877
  C   -2.60248383313539      0.90080091575047      1.15800292111634
  H   -0.69192144530401      0.86708400158066      2.12794865168893
  C   -3.28864387284883      1.00313008229325     -0.05016420503639
  H   -3.15098975381550      0.82351207398396      2.09025784300418
  C   -2.56866753756999      1.12555845148332     -1.23656520559893
  H   -4.37245447880572      0.99393507734160     -0.06645606942806
  H   -3.09098101440012      1.20881838677085     -2.18322857332486
  H   -0.63509617104172      1.22776808089711     -2.15003317760551
  C   3.13828884458196      1.67708632677828     -0.94025070618722
  H   1.23368257886225      2.27106643197512     -1.72208563389660
  C   3.81794899272032      0.97697839996105      0.05432116833764
  H   3.69205610512215      2.21371046968870     -1.70267559823606
  C   3.09183715106790      0.29588230769044      1.02893285662953
  H   4.90171093311432      0.96097137186743      0.06863156428445
  H   3.60904298707849     -0.26502823964607      1.79952324819859
  H   1.14983929047576     -0.25266345345357      1.75044867586902
