22
Coordinates from ORCA-job opt
  C   1.00138411373804      1.00154761065936      0.01371925583677
  C   -0.47228027121584      1.00940919711960     -0.00959563755070
  C   1.71002843830945     -0.20648323150832      0.03256879666397
  C   1.72215523944981      2.20256104768617      0.01726679924389
  C   -1.17948238689715      0.10573618066539     -0.81274353241218
  C   -1.19405232181891      1.92099587661814      0.77138964580544
  C   -2.57127776379595      0.11424007474065     -0.83517532197548
  H   -0.63151736681956     -0.58670811593541     -1.44337653198627
  C   -3.27933780811572      1.02510601473040     -0.05333332183029
  H   -3.10339341906436     -0.58569063619993     -1.46990587989790
  C   -2.58586641063765      1.92805941938257      0.75045483168308
  H   -4.36320957675384      1.03116058608529     -0.07023602785357
  H   -3.12966100845900      2.63403606236148      1.36837095376684
  H   -0.65813415321966      2.60720179186461      1.41905905927742
  C   3.10180784545609     -0.21335215500934      0.05557120266384
  H   1.16306296033638     -1.14330802351551      0.05818898009129
  C   3.80871294864736      0.98770891776761      0.05801777384690
  H   3.63479271823310     -1.15742381713684      0.07976027682690
  C   3.11396617962502      2.19568170809604      0.03819465405186
  H   4.89258401909234      0.98236073345547      0.07513373970815
  H   3.65675702286852      3.13443734474412      0.03101787432890
  H   1.18556000104152      3.14472141332845     -0.02574959028888
