22
Coordinates from ORCA-job opt
  C   1.00195770286429      1.00619878491250      0.00379534042938
  C   -0.47628041357416      0.99771075471514     -0.01180844166148
  C   1.73104489098463      0.60265122081012     -1.11940551059599
  C   1.69277072914618      1.39171608171626      1.15772666451036
  C   -1.20098197680550     -0.03468086796627      0.58995943117587
  C   -1.16479265672255      2.04968875301649     -0.62641431945171
  C   -2.59408573689612     -0.02093231943655      0.56680128699107
  H   -0.66672452483603     -0.84945188736929      1.06801353893602
  C   -3.27405643210922      1.02609256173454     -0.05294620636779
  H   -3.14893204228416     -0.82824309920297      1.03188425374993
  C   -2.55750199505415      2.06357112071228     -0.64726803755524
  H   -4.35794913106528      1.03511773385664     -0.06957769045044
  H   -3.08313690732892      2.88430786986705     -1.12269298142619
  H   -0.59486225250804      2.86365562616563     -1.06771251491777
  C   3.12390846708380      0.59942498747023     -1.09474673815384
  H   1.19787784535997      0.29135434326564     -2.01207044120301
  C   3.80407543554821      0.99323112395289      0.05601170259269
  H   3.67773564097538      0.28449209814087     -1.97223105999126
  C   3.08560074776401      1.38942669892460      1.18245616558439
  H   4.88794249438224      0.99045869220332      0.07514088946043
  H   3.60952186751467      1.69613527378488      2.08098519098071
  H   1.12946924756073      1.70007444872600      2.03269947736387
