22
Coordinates from ORCA-job opt
  C   1.00032809561272      1.01518085993546      0.02132685849877
  C   -0.47262868279440      1.01076223626180     -0.01164461318757
  C   1.69293181096996      0.13755704787193      0.86410010238022
  C   1.73130732702389      1.86790303653768     -0.81444585456841
  C   -1.16688485111589      0.91209395399488     -1.22255406298472
  C   -1.19904945383840      1.12177637458315      1.18056051520206
  C   -2.55930008158929      0.90867810401168     -1.23902880438854
  H   -0.60858398948475      0.81242953291437     -2.14792666598090
  C   -3.27460558744003      1.01129645166816     -0.04705223048836
  H   -3.08653735829005      0.82047897076972     -2.18251259334257
  C   -2.59119946797585      1.12170644294189      1.16284024251517
  H   -4.35855797316908      1.00920179000060     -0.06140193837491
  H   -3.14278479864727      1.21706753714383      2.09160470750204
  H   -0.66079100470236      1.24771373904461      2.11610342593193
  C   3.08513043960795      0.12488219988435      0.88257190170632
  H   1.13187983819866     -0.54641481752206      1.49288085473280
  C   3.80405735283753      0.98463365194231      0.05400418798081
  H   3.60906223860360     -0.56370411559137      1.53623134494086
  C   3.12345203529447      1.85634267561468     -0.79426784460004
  H   4.88795777743279      0.97464863755719      0.06846190719396
  H   3.67729304437431      2.53048800032998     -1.43825119568763
  H   1.20012528909148      2.55727669010513     -1.46300124498131
