22
Coordinates from ORCA-job opt
  C   0.99999437823312      0.98857642364244      0.00009903801239
  C   -0.47385262598778      1.01225481667222     -0.00268671837520
  C   1.72451194476973      1.91519425411458     -0.75837359386716
  C   1.69667508342041      0.07547493017318      0.79997798876989
  C   -1.20013564431092      1.19845924384015      1.17755380969960
  C   -1.16328179654411      0.82249776452453     -1.20677227692482
  C   -2.59265317634747      1.21582455283214      1.15015506764039
  H   -0.66688192275684      1.34999720214713      2.11068300600803
  C   -3.27242873263897      1.03817148857163     -0.05381719304740
  H   -3.14776745336890      1.37163031450388      2.06857187386365
  C   -2.55540704555603      0.83630092486511     -1.23221301063507
  H   -4.35624657076968      1.05146264371320     -0.07258056855841
  H   -3.08083575277120      0.68084339147574     -2.16800457628961
  H   -0.59360860289005      0.62389474670797     -2.11173425746262
  C   3.11694551649773      1.91263427918049     -0.73622995381412
  H   1.18727708828006      2.64254956514506     -1.35876233301882
  C   3.80245764762654      0.99055757795152      0.05267210460823
  H   3.66680835264812      2.63742966675078     -1.32634624328598
  C   3.08909782404982      0.07188754836477      0.82063321689493
  H   4.88636317865116      0.98888413287792      0.07006810686835
  H   3.61740310844425     -0.64856154168051      1.43526481712575
  H   1.13816520132102     -0.64396492637394      1.39044369578800
