22
Coordinates from ORCA-job opt
  C   0.99969120080096      1.01300781948315      0.02736104393552
  C   -0.47441970107551      1.00424293199713     -0.01544459623220
  C   1.69374850715000      0.04953596661643      0.76768495071603
  C   1.72681902197107      1.95092803178013     -0.71437718773068
  C   -1.16750219306108      0.78193267651835     -1.20885211461031
  C   -1.19517669803341      1.24748470149194      1.16020558364505
  C   -2.56052438652617      0.78137158484867     -1.22147685244480
  H   -0.60886103014817      0.59221174554246     -2.11986428846401
  C   -3.27239272224696      1.01193560899501     -0.04533683845925
  H   -3.09095059874142      0.59819004793739     -2.14938381475076
  C   -2.58765019131862      1.25032701427829      1.14538937955247
  H   -4.35638744130669      1.01152829591343     -0.05801204913422
  H   -3.13817761717789      1.44641690234986      2.05885737517687
  H   -0.64797545424687      1.47221975634215      2.07325183664020
  C   3.08633747311873      0.04020421325881      0.78649160468497
  H   1.13286970201037     -0.69482638390618      1.32400704558565
  C   3.80221065567648      0.98712937478396      0.05625298408544
  H   3.61263475573707     -0.71255902122194      1.36292026278671
  C   3.11936641599483      1.94261904419704     -0.69423261806515
  H   4.88613790791509      0.97950244927477      0.07067352591893
  H   3.67137728780306      2.68185932723396     -1.26409136550200
  H   1.19142510570514      2.69673491228516     -1.29342286733444
