22
Coordinates from ORCA-job opt
  C   1.00164225218377      1.00393998542289      0.01412614936026
  C   -0.47220090623596      1.01030836937880     -0.00887959390076
  C   1.73473219322119      1.78026861167862     -0.89240335662484
  C   1.69849079564375      0.21736025045866      0.94017755637349
  C   -1.20506078781571      1.01244069074552      1.18484103650796
  C   -1.16945865021002      1.01639161823205     -1.22360924718969
  C   -2.59694350791632      1.01945600238459      1.16450844429349
  H   -0.67821108865015      1.03819615486313      2.13301002057914
  C   -3.28021353641470      1.02325825052191     -0.05015283496918
  H   -3.14808337964453      1.03058916198161      2.09830539158169
  C   -2.56137977396354      1.02169567278109     -1.24410931746530
  H   -4.36407742551831      1.02799344842559     -0.06615741809481
  H   -3.08484469105177      1.01636738629911     -2.19374771045594
  H   -0.61562749130852      0.98923878133837     -2.15608208617801
  C   3.12660944607902      1.77273571042386     -0.87143332242575
  H   1.20818916800077      2.41578683036320     -1.59676455040842
  C   3.80952173560889      0.98631640539030      0.05458188916715
  H   3.67805447795917      2.38782287099680     -1.57387911180251
  C   3.09039731985062      0.20828920107255      0.96001402726507
  H   4.89337904282269      0.97974310473063      0.07039914767657
  H   3.61361478012816     -0.41395604466149      1.67758877773100
  H   1.14406902723147     -0.41224246282781      1.62826610897940
