22
Coordinates from ORCA-job opt
  C   1.00171315559238      1.00078257221682      0.01341125606248
  C   -0.47198808273848      1.00913486066246     -0.00964405095752
  C   1.72214542806294      2.20188290523353      0.01646317317372
  C   1.71014494291037     -0.20723479795653      0.03225352467428
  C   -1.19314454120795      1.92318245718586      0.76898940208304
  C   -1.18047487163092      0.10378277678773     -0.80966193595401
  C   -2.58507026339292      1.93124343289970      0.74874614301587
  H   -0.65774368954874      2.61105186518272      1.41515022896258
  C   -3.27971962565064      1.02644951467099     -0.05196360658545
  H   -3.12746761345352      2.63941229833988      1.36531592918845
  C   -2.57238037327177      0.11296317818124     -0.83143465485632
  H   -4.36356587766892      1.03309434615321     -0.06831169145672
  H   -3.10464283961429     -0.58855446805191     -1.46422303217434
  H   -0.63462243991379     -0.59093566254923     -1.43936870087089
  C   3.11409882303828      2.19506995714000      0.03715283527116
  H   1.18640049670468      3.14442812286097     -0.02699731639097
  C   3.80896837614125      0.98710904182565      0.05692980418345
  H   3.65638126423382      3.13407584366508      0.02942421350062
  C   3.10205144067399     -0.21402433030700      0.05482979788719
  H   4.89281689742915      0.98181790902651      0.07372586317368
  H   3.63466926668400     -1.15825664857299      0.07922086252605
  H   1.16403112662107     -1.14447317459467      0.05859195554365
