22
Coordinates from ORCA-job opt
  C   1.00160186170792      1.00264312419799      0.01373476241063
  C   -0.47205088789459      1.01026335114423     -0.00907352784916
  C   1.70934239748214     -0.20585234622844      0.03095595825274
  C   1.72291090085218      2.20319502921992      0.01891023164577
  C   -1.17887282047779      0.10530844337893     -0.81105731863012
  C   -1.19471705495789      1.92240509699554      0.77032556109899
  C   -2.57077215680632      0.11281083530907     -0.83373220574855
  H   -0.63147079906798     -0.58769569052473     -1.44148924495468
  C   -3.27967653765076      1.02426210474566     -0.05331580465355
  H   -3.10176246119949     -0.58844508386169     -1.46788261771112
  C   -2.58664011538274      1.92876543448930      0.74916029829923
  H   -4.36351826815544      1.02968599562563     -0.07043240646070
  H   -3.13035481637013      2.63531112720542      1.36642817599937
  H   -0.66064441203711      2.61006581653094      1.41772611937413
  C   3.10125603684009     -0.21357011197887      0.05359476757431
  H   1.16275089523479     -1.14283274626842      0.05603221960543
  C   3.80895601295208      0.98706426820072      0.05752796005750
  H   3.63321971680448     -1.15821214199551      0.07654490488883
  C   3.11483646295622      2.19549884760020      0.03965934704024
  H   4.89279841072059      0.98103454797974      0.07447151577039
  H   3.65772287199627      3.13416160295280      0.03340756559504
  H   1.18768576245348      3.14613249528154     -0.02289726160473
