22
Coordinates from ORCA-job opt
  C   1.00999678232872      1.03931266659568      0.02266934407530
  C   -0.46861851235890      1.04023627720159      0.01574726982702
  C   1.68757636551927     -0.18722474100816      0.02497980418423
  C   1.74806034158977      2.22705886205591      0.02879447514345
  C   -1.15728513362825      0.11868117260086     -0.78682622081580
  C   -1.21886163997601      1.94277445639578      0.77805955331133
  C   -2.54808278667321      0.09319139650807     -0.81759688733216
  H   -0.59213736025721     -0.56278725393750     -1.41393002905997
  C   -3.28166108075179      0.99237655706508     -0.04648099868261
  H   -3.05925313442533     -0.62292230482696     -1.45151658922767
  C   -2.61074232707333      1.91738509234542      0.74993722502414
  H   -4.36531149684513      0.97412952876480     -0.06780798428898
  H   -3.17174267834026      2.61908877632843      1.35723411174021
  H   -0.71583631702616      2.65460390086068      1.41871102954180
  C   3.07923569589568     -0.22118264000020      0.02760901948412
  H   1.11966156971001     -1.11050494109896      0.05665942913044
  C   3.80854264766600      0.96705826670323      0.02787207493609
  H   3.59635701945679     -1.17437960773247      0.03818125513189
  C   3.13983977349243      2.19008754749507      0.02913214252463
  H   4.89228374389370      0.94015937597607      0.02880072389133
  H   3.70371889176301      3.11632451663688      0.02352476887996
  H   1.22686163604021      3.17853409507068      0.00484848258125
