22
Coordinates from ORCA-job opt
  C   1.00210005143764      0.99361902981055      0.00858756712171
  C   -0.47234739112707      1.00742546749607     -0.00776575673122
  C   1.70325074566366      0.24247131202752      0.96091740705927
  C   1.73407566797476      1.75006606056480     -0.91598224658751
  C   -1.17150240480069      1.04923792979545     -1.22136204829379
  C   -1.20706055181656      0.97028141642864      1.18437116097838
  C   -2.56320525636305      1.06160861101748     -1.24229836135038
  H   -0.61974032819588      1.04190293288799     -2.15536834532716
  C   -3.28271396880513      1.03079014902224     -0.04929963012082
  H   -3.08581594539810      1.08590138446465     -2.19210800721084
  C   -2.59886012130144      0.98349525477883      1.16396458110476
  H   -4.36652827853265      1.04100497606744     -0.06500337636620
  H   -3.14944268157029      0.96415010627943      2.09795018384649
  H   -0.68460145505686      0.95292813590616      2.13435812260900
  C   3.09503426090402      0.23920085851183      0.98145442165703
  H   1.15362308179547     -0.37025555626331      1.66755093161771
  C   3.81209747116303      0.99249706598299      0.05384008551358
  H   3.61971496973640     -0.35792923946711      1.71901000386306
  C   3.12590511838269      1.74838223613303     -0.89469896864136
  H   4.89594565073259      0.99102071528959      0.07047915009798
  H   3.67456352596511      2.34686946399534     -1.61347623310233
  H   1.20810883921237      2.36733168927039     -1.63652064173734
