22
Coordinates from ORCA-job opt
  C   0.99999375250243      1.01979535478205      0.00905900903992
  C   -0.47455759434054      1.00112478954494     -0.00700666746351
  C   1.72556638160137      0.76537465545192     -1.16008158569081
  C   1.69515974523723      1.23860434268329      1.20381928675640
  C   -1.19954568191449      0.06154745682627      0.73163834734335
  C   -1.16347562972915      1.96022031388148     -0.75956129007383
  C   -2.59226011610960      0.06790485948345      0.70042429099194
  H   -0.66556340771977     -0.68259579113342      1.31398798775129
  C   -3.27214300481377      1.01761831564419     -0.06051313163436
  H   -3.14738683409420     -0.67056090397042      1.26824629667424
  C   -2.55574234200999      1.96772103086919     -0.78687880125431
  H   -4.35598187385489      1.02072757961384     -0.08262359865761
  H   -3.08161046502486      2.71820401157031     -1.36670085778711
  H   -0.59246577412583      2.72030070878215     -1.28853468103746
  C   3.11813364955942      0.75555400563985     -1.14001664989588
  H   1.18910507302800      0.57043673992295     -2.08331677780902
  C   3.80228815581782      0.98881029038879      0.05158540548883
  H   3.66900620825712      0.55564799467329     -2.05242486224717
  C   3.08771376682396      1.23043213227371      1.22353626884360
  H   4.88619667714428      0.98074953912581      0.06712924140593
  H   3.61497140074807      1.41274779287305      2.15342427120708
  H   1.13519791301738      1.43163478107330      2.11340749804848
