22
Coordinates from ORCA-job opt
  C   1.00608599251575      1.02035729000418      0.02430116185618
  C   -0.47013545296747      1.03083380553505     -0.00707938944756
  C   1.71042895424904      0.09897139876847     -0.76176756861280
  C   1.72258329673780      1.91794252216837      0.82388137730178
  C   -1.18027307310703     -0.17782272026556     -0.01243045618006
  C   -1.19361545242815      2.22925599304663     -0.02609051630381
  C   -2.57163282246714     -0.18762172255648     -0.04083425291944
  H   -0.63327519291218     -1.11360755906507      0.03617615154942
  C   -3.27974643290498      1.01227205582418     -0.06432853356086
  H   -3.10369982025505     -1.13253840308563     -0.03595489894060
  C   -2.58546637711333      2.22013900925043     -0.05656406087915
  H   -4.36353914360566      1.00615976487165     -0.08728204881636
  H   -3.12843908640365      3.15850720112697     -0.08134915557752
  H   -0.66306026494252      3.17351042236347     -0.04583494515689
  C   3.10219279439262      0.07510445648974     -0.74407212743893
  H   1.16208252510753     -0.57741517109230     -1.40866519066086
  C   3.80771893210699      0.97008107504064      0.05860370980222
  H   3.63749468528425     -0.63632655073161     -1.36325622274033
  C   3.11439676491572      1.89107278232058      0.84193491310508
  H   4.89153621819024      0.95056754670573      0.07291881212379
  H   3.65862977663533      2.58474010530321      1.47328417344227
  H   1.18233517897188      2.61781969797736      1.45300906805447
