22
Coordinates from ORCA-job opt
  C   1.00980545190173      1.03604019113074      0.03093817845998
  C   -0.46823516938940      1.04879867880488     -0.00782207585504
  C   1.70101360865644      0.10081397343715     -0.75077714638877
  C   1.73426583057980      1.93168040274195      0.82373462579666
  C   -1.17055030558684     -0.16535068633052     -0.02217424028971
  C   -1.20502371838430      2.23858448860211     -0.01891195775790
  C   -2.56127597425959     -0.18897619765990     -0.05747881578037
  H   -0.61707709763300     -1.09727897909666      0.02507076306773
  C   -3.28112469647491      1.00381020271988     -0.07685704258471
  H   -3.08341280712714     -1.13941456431821     -0.06011723953408
  C   -2.59674678125846      2.21676863757072     -0.05619287882058
  H   -4.36465405242246      0.98833950245937     -0.10531930381148
  H   -3.14688679770021      3.15106113369509     -0.07520631107659
  H   -0.69069787131651      3.19023925176353     -0.02450155941914
  C   3.09241439849444      0.06135165345994     -0.73289433314818
  H   1.14479900019581     -0.57172717091697     -1.39443951346262
  C   3.80791804599868      0.95364695489253      0.06439073594440
  H   3.62034790440480     -0.65964701274292     -1.34734991185099
  C   3.12575096877602      1.88845605931111      0.84140155866384
  H   4.89142927253059      0.92184958610664      0.07886857979006
  H   3.67867370663111      2.58026741225366      1.46716400237284
  H   1.20186908338340      2.64268748211589      1.44707288568464
