22
Coordinates from ORCA-job opt
  C   1.00694023180927      1.00213650715789      0.01378627004681
  C   -0.47761054690362      1.00993961385578     -0.00950062662954
  C   1.73935532738589     -0.12440401665947     -0.39173506784620
  C   1.73811597126851      2.12091510010464      0.44236836108193
  C   -1.20877309217247     -0.10900639495655     -0.43766102558165
  C   -1.21004211566805      2.13656358797441      0.39576599477115
  C   -2.60009393778945     -0.10308084059815     -0.45998783681221
  H   -0.69940423812871     -1.00684969289627     -0.76185756776550
  C   -3.30790581980338      1.02481208246122     -0.05384415177360
  H   -3.13041981462792     -0.98670038698016     -0.79727342327353
  C   -2.60135993178913      2.14527370796541      0.37447641604400
  H   -4.39160623887747      1.03050529630539     -0.07083102747255
  H   -3.13268475571246      3.03446009227936      0.69515030999755
  H   -0.70163968645317      3.02901190585300      0.73597274358388
  C   3.13067409014902     -0.13315693747382     -0.37038281312134
  H   1.23096100621656     -1.01673189629072     -0.73227576521098
  C   3.83723203230794      0.98715733493869      0.05830048443232
  H   3.66198908500271     -1.02226793477078     -0.69128184131935
  C   3.12943315283229      2.11494575382879      0.46476008378432
  H   4.92093142142037      0.98142749875387      0.07533902947946
  H   3.65976756965149      2.99843485059414      0.80237392099879
  H   1.22873828988177      3.01861676855332      0.76693653258625
