22
Coordinates from ORCA-job opt
  C   1.00166073153273      1.00055461549108      0.01184495603529
  C   -0.47221695576202      1.00915304173774     -0.00826510127425
  C   1.70002940778530      0.21574386022896      0.93826348223268
  C   1.73322718514793      1.78114735323398     -0.89224099064585
  C   -1.16982454711775      1.01612293972681     -1.22290541442082
  C   -1.20474786877044      1.00847581038988      1.18554296091809
  C   -2.56170659407239      1.02325049247915     -1.24329609147333
  H   -0.61575857179529      0.98630721704138     -2.15531053878995
  C   -3.28022573639374      1.02472530099195     -0.04914440338317
  H   -3.08537097824976      1.01901456496646     -2.19282938011240
  C   -2.59665307685501      1.01731225266697      1.16532319079703
  H   -4.36408629341160      1.03100453758105     -0.06484865083504
  H   -3.14760529145821      1.02664449809860      2.09925116947568
  H   -0.67818626277922      1.02867479211764      2.13385363132459
  C   3.09193039440932      0.20917844541019      0.95801965504694
  H   1.14672031420410     -0.41525606315626      1.62597203619195
  C   3.80955944518113      0.98974226478471      0.05355688405364
  H   3.61633616923120     -0.41231734951162      1.67537277774834
  C   3.12513662278681      1.77611821844423     -0.87135064878665
  H   4.89342667576931      0.98533657649723      0.06945464705787
  H   3.67539685392924      2.39388772881005     -1.57237386058354
  H   1.20556037668835      2.41718090196982     -1.59528931057712
