22
Coordinates from ORCA-job opt
  C   1.00311191588636      0.99453382822572      0.01262707447985
  C   -0.47150010881870      1.00392003257967     -0.01277061898124
  C   1.71819729920729      2.19905769796468      0.01431298905376
  C   1.71426271176096     -0.21146043560759      0.03355605039391
  C   -1.18941377364433      1.91904934983175      0.76831413643874
  C   -1.18425543221776      0.10202822303732     -0.81264780131066
  C   -2.58109414066965      1.93238992862425      0.74940757508829
  H   -0.64979548196381      2.60305574936676      1.41509077442636
  C   -3.27949226035552      1.03141712207986     -0.05220299919826
  H   -3.12102643163791      2.64135645576527      1.36728245820323
  C   -2.57607144801122      0.11652211413519     -0.83325547808169
  H   -4.36335320683420      1.04196086082912     -0.06786284147620
  H   -3.11191466875598     -0.58243547720149     -1.46591030681132
  H   -0.64199423034117     -0.59411534780865     -1.44303270630897
  C   3.11001220537562      2.19676412595898      0.03727425785852
  H   1.17741720735825      3.13850557854310     -0.03211406953745
  C   3.80834858032569      0.99079214701776      0.06024970271120
  H   3.65041142650357      3.13690067066730      0.02894333930571
  C   3.10608108702497     -0.21303707597683      0.05857653747296
  H   4.89222277919453      0.98911679246965      0.07895444933825
  H   3.64302765802285     -1.15481155328210      0.08449915757118
  H   1.16941931259017     -1.14951078721973      0.05930731936383
