22
Coordinates from ORCA-job opt
  C   1.01196194066087      1.04785479349321      0.02681883873283
  C   -0.46754910959722      1.04654077252182      0.02345759275843
  C   1.68308651890344     -0.18236395556716      0.01487049630694
  C   1.75402908941871      2.23250215418555      0.03981649992210
  C   -1.15250245308140      0.11620997967517     -0.77295212963811
  C   -1.22502186147039      1.95246797646043      0.77443340188025
  C   -2.54308308330447      0.08248886165403     -0.80505664443670
  H   -0.58525416618134     -0.56671466406288     -1.39629894532468
  C   -3.28287399067002      0.98370222035708     -0.04249461859847
  H   -3.04873664477756     -0.64115827991490     -1.43477700038178
  C   -2.61682808144804      1.91954244528702      0.74517724132290
  H   -4.36633067630916      0.95954912486917     -0.06469767173989
  H   -3.18107452871563      2.62495098718777      1.34505575551405
  H   -0.73079815974596      2.67611151947531      1.40715763719640
  C   3.07471128531959     -0.22214590959187      0.01054878820627
  H   1.11235371633183     -1.10368475316970      0.04328783027919
  C   3.80911372365876      0.96316283897287      0.01763392937732
  H   3.58792048604089     -1.17748729592863      0.01067284830797
  C   3.14573028810092      2.18914106880316      0.03323536752414
  H   4.89267197917560      0.93168599613290      0.01322827524003
  H   3.71352875040834      3.11295878645486      0.03300429929730
  H   1.23754497728225      3.18668733270477      0.02647720825348
