22
Coordinates from ORCA-job opt
  C   1.00615048843161      1.02265797271099      0.01734992650921
  C   -0.47033739815746      1.02685493406624      0.00295479286025
  C   1.69682773148588     -0.19621854410412      0.03284183606814
  C   1.73633394916324      2.21648859106171      0.01939480930702
  C   -1.16673005000744      0.11571705715672     -0.80327469220728
  C   -1.20736498248070      1.93070875133129      0.77745646258477
  C   -2.55811726577982      0.10569816469369     -0.83043914608157
  H   -0.60807237115512     -0.56784588574548     -1.43407322150067
  C   -3.27995819439382      1.00758796586575     -0.05116707301529
  H   -3.07921693097720     -0.60095259816074     -1.46690283817153
  C   -2.59930537907568      1.91985096531408      0.75228316293608
  H   -4.36381107635274      1.00038521467120     -0.07071822310949
  H   -3.15324012585847      2.62082600223026      1.36690370679779
  H   -0.68814257841823      2.62711192512067      1.42473915690666
  C   3.08866712499777     -0.21828870641600      0.04631253515540
  H   1.13686799903138     -1.12471555974667      0.06458897265728
  C   3.80797459063053      0.97570364515821      0.04400161169630
  H   3.61299998066859     -1.16734351920021      0.06728034795739
  C   3.12826668226391      2.19239804479924      0.03063771308537
  H   4.89187834300367      0.95816209748815      0.05348633331727
  H   3.68344331696409      3.12388381438277      0.02176938722636
  H   1.20748714601598      3.16332866732227     -0.01682456097947
