22
Coordinates from ORCA-job opt
  C   1.00327302006238      1.00929333635859      0.01854958227705
  C   -0.47139250939750      1.01787523749764     -0.00712207018506
  C   1.71814645909663      0.09575848757771     -0.76655457331233
  C   1.71447905451183      1.90936651288802      0.82107412514143
  C   -1.18806746762598     -0.18593289623063     -0.00944184717646
  C   -1.18575616795646      2.22202042386494     -0.02860716352032
  C   -2.57978281176121     -0.18557136741820     -0.03318556005852
  H   -0.64822858194293     -1.12611090750494      0.03639413906463
  C   -3.27991024531749      1.01915348865949     -0.05649129363843
  H   -3.11789724481793     -1.12703069744729     -0.02500758861546
  C   -2.57763333210017      2.22274200461700     -0.05455798053913
  H   -4.36376217084882      1.02003977962879     -0.07582390712270
  H   -3.11393899887717      3.16489906986586     -0.08081038032099
  H   -0.64582358131287      3.16211156078146     -0.05401737464259
  C   3.11002053297121      0.08262106828842     -0.74816391390568
  H   1.17796382344083     -0.58671258567636     -1.41437081249230
  C   3.80872861365191      0.98135626013247      0.05606029055464
  H   3.64975959432539     -0.62428288769068     -1.36862625283380
  C   3.10637259983675      1.89429395153837      0.84069674249175
  H   4.89260961272866      0.97055810103329      0.07101946310214
  H   3.64289410685379      2.59133504209602      1.47493242187703
  H   1.17054669447915      2.60421901714003      1.45265395385511
