22
Coordinates from ORCA-job opt
  C   1.00800377390610      0.97635026415420     -0.00039702110296
  C   -0.46948154238186      0.98050094028691     -0.01077187626626
  C   1.69151424186597      1.89739106321641      0.80438549146530
  C   1.74276009992206      0.07117910883603     -0.77356219564398
  C   -1.16279756199539      2.19928396636809     -0.02530929897818
  C   -1.21217605477180     -0.20593176901235     -0.01549903451856
  C   -2.55392883349697      2.23060163705291     -0.03646114468080
  H   -0.60148009762869      3.12720396328687     -0.05816140644205
  C   -3.28076146250111      1.04179767264003     -0.03446797509701
  H   -3.07080013322395      3.18373333510470     -0.05574952372976
  C   -2.60411249422676     -0.17583199461576     -0.02463951126950
  H   -4.36454692811646      1.06398375382230     -0.04230615647980
  H   -3.16096986505883     -1.10632583606465     -0.01753889476108
  H   -0.70012864404559     -1.15924570839962      0.01578002797752
  C   3.08326887759894      1.91368676587233      0.82951257172763
  H   1.12705574345206      2.57848587487931      1.43196743904322
  C   3.80820016458420      1.01168084706269      0.05217249173599
  H   3.60350233426179      2.62448324926505      1.46214853235732
  C   3.13462120294902      0.09085560810709     -0.74851168389919
  H   4.89203558845901      1.02536962404638      0.07121468663784
  H   3.69465320691794     -0.60842870485146     -1.35950852388829
  H   1.21816938353032     -0.62882066105747     -1.41569599418742
