22
Coordinates from ORCA-job opt
  C   1.01222020979529      1.03551297573777     -0.02248653146506
  C   -0.47339220886608      1.03458931437925     -0.03479386638778
  C   1.72804329364923     -0.06859697268969     -0.51032959971701
  C   1.74432308805662      2.09588326826889      0.52931886370656
  C   -1.19557209676447     -0.13202661978853     -0.33358501389082
  C   -1.21666078800149      2.18242521145255      0.27809531055367
  C   -2.58667280192897     -0.14347818170219     -0.34704866190977
  H   -0.67579839037884     -1.05904334188440     -0.53772229120517
  C   -3.30466825314313      1.01237624872336     -0.05276911528645
  H   -3.10912606012044     -1.06424455096199     -0.58190028158996
  C   -2.60808173590772      2.17414593338247      0.26764640428660
  H   -4.38847625219876      1.00524160569394     -0.06310326446604
  H   -3.14738873344231      3.08263105189071      0.51196710528313
  H   -0.71672200522097      3.10253118711208      0.54581911213112
  C   3.11873217281025     -0.09806861948549     -0.47061805088655
  H   1.20854214443686     -0.90128909627489     -0.96569577715937
  C   3.83164715970054      0.96856660695210      0.07159038571789
  H   3.64572018436400     -0.96042567472583     -0.86387429631409
  C   3.13498696146965      2.06671530370710      0.56956068174692
  H   4.91482688162136      0.94507105892938      0.10402119823170
  H   3.67385907721432      2.90231331549804      1.00233103292843
  H   1.23225815285505      2.95116797578534      0.95217565569205
