19
Coordinates from ORCA-job opt
  C   1.00012865029269      1.01395812107969     -0.06666616603101
  C   -0.44840846923039      1.00098213176600      0.03121807059216
  C   1.66286578548172      0.25456835827862     -1.04012883455893
  C   1.75829484349547      1.74953807114811      0.85443925801824
  C   -1.33489595662870      1.44728958691516      0.98281917424153
  O   -1.13984910116922      0.43062913979862     -0.99890011764067
  C   -2.63617795977224      1.13383572923886      0.50769334073001
  H   -1.07820883977984      1.92595135903132      1.91425164449958
  C   -2.46101144673089      0.51714427214901     -0.69801941611166
  H   -3.58037495192952      1.33082758996873      0.98944875870325
  H   -3.13701267975543      0.10483316219541     -1.42841096382910
  C   3.05305536833374      0.22536462464881     -1.07996452023508
  H   1.08290482446920     -0.31796190226064     -1.75422251884058
  C   3.80174189135863      0.94218927311891     -0.14852444073262
  H   3.55378284667328     -0.36961903984272     -1.83561716102050
  C   3.14702345546005      1.71078547632633      0.81322992091807
  H   4.88478866501709      0.91194391224561     -0.17831626637123
  H   3.72057889402678      2.28190262723237      1.53468927767626
  H   1.25717418038759      2.35594050696180      1.60097995999226
