19
Coordinates from ORCA-job opt
  C   1.00197665665807      1.00361810494120     -0.02455048627990
  C   -0.44785022002268      0.97812453136708      0.04891342031629
  C   1.73140425206177     -0.18879399245131      0.07825095777444
  C   1.69400569645474      2.21162896439751     -0.18365574106494
  C   -1.37572916389955     -0.03640706162702      0.07785329617850
  O   -1.09233599353588      2.18102935663889      0.09380921529521
  C   -2.65335339078177      0.58006075034326      0.14674669230725
  H   -1.16373400347941     -1.09302718035471      0.04462505505802
  C   -2.42461045981189      1.92628439771065      0.15300653017571
  H   -3.61731412118429      0.09869147452095      0.18472674232856
  H   -3.06641402244353      2.79034149788964      0.19683729201352
  C   3.11996103349116     -0.17186181084290      0.02188043658577
  H   1.20991738254389     -1.12987600966655      0.21410661858024
  C   3.80410921483364      1.03351423469668     -0.13141953118266
  H   3.67061361078821     -1.10217694791456      0.10506965198155
  C   3.08415171267779      2.22204537992906     -0.23477230746527
  H   4.88719698446688      1.04533016845182     -0.17072385682657
  H   3.60723589558822      3.16405579534507     -0.35614693457750
  H   1.13717093559458      3.13752034662525     -0.26455805119824
