19
Coordinates from ORCA-job opt
  C   1.00227326832107      1.00428426485991     -0.02086904267637
  C   -0.44791861384911      0.98057467863495      0.04601433837814
  C   1.70267868149469      2.21783490975253     -0.04381190672468
  C   1.72338185325610     -0.19703211094834     -0.05929403523987
  C   -1.37315980495332     -0.02915835120841      0.17196410525840
  O   -1.09630526460782      2.18038599603997     -0.01908370529546
  C   -2.65231549200779      0.58709540221536      0.18248039248581
  H   -1.15874595657609     -1.08270294310845      0.25368966113563
  C   -2.42766829519305      1.92887747232669      0.06452556876709
  H   -3.61423572928199      0.10762357849880      0.26784865085133
  H   -3.07181838591244      2.79139678028282      0.02454826511032
  C   3.09245631996138      2.22441145829246     -0.10301552498758
  H   1.15244358720998      3.15071509350318     -0.01374277715017
  C   3.80419831008849      1.02698358646755     -0.13725394606918
  H   3.62203726711690      3.17050967442795     -0.12035428883848
  C   3.11185936877048     -0.18319285464514     -0.11526481277620
  H   4.88710858702212      1.03583533083290     -0.18247489426319
  H   3.65585064612420     -1.12071792494449     -0.14462966334927
  H   1.19427965301620     -1.14362404128025     -0.05127638461626
