19
Coordinates from ORCA-job opt
  C   1.00202097487241      1.00396221109197     -0.02301365377613
  C   -0.44781039650025      0.97800820190445      0.05029039098170
  C   1.73165567976710     -0.18812963501842      0.08180936233145
  C   1.69379930369771      2.21161311046388     -0.18581313037630
  C   -1.37558743595112     -0.03661166534153      0.07604946126267
  O   -1.09233179051800      2.18079334623232      0.09874588727119
  C   -2.65330830886637      0.57956796351200      0.14689045234259
  H   -1.16319764013864     -1.09300724043939      0.03859221786387
  C   -2.42450091035889      1.92576360138779      0.15702185323626
  H   -3.61744093670475      0.09846948526245      0.18358059151343
  H   -3.06634196659534      2.78966660770509      0.20354488742485
  C   3.12012953598381     -0.17138688071469      0.02324837999853
  H   1.21017607807760     -1.12869644423505      0.22121069977681
  C   3.80399733796054      1.03358732623393     -0.13425770868009
  H   3.67090860652690     -1.10148874315861      0.10793624004524
  C   3.08382369225223      2.22192000513513     -0.23891860967675
  H   4.88701740163477      1.04522800490611     -0.17530126193053
  H   3.60672009450599      3.16363749290387     -0.36333833660070
  H   1.13666868035429      3.13720425216868     -0.26827672300811
