19
Coordinates from ORCA-job opt
  C   1.00198179215359      1.00356228552063     -0.02469529854583
  C   -0.44780346108693      0.97797710043576      0.04911325428367
  C   1.73153455890037     -0.18884994941082      0.07726073553480
  C   1.69387379740469      2.21172374753066     -0.18342416402729
  C   -1.37565314702797     -0.03656311547918      0.08044821619405
  O   -1.09243088169189      2.18091630297409      0.09185018072655
  C   -2.65325874119343      0.57991475361982      0.14865129185203
  H   -1.16372175961832     -1.09326046998251      0.04949707034542
  C   -2.42466871407743      1.92620103769308      0.15201439052928
  H   -3.61712077239380      0.09846792631560      0.18801984763719
  H   -3.06650975252092      2.79030590102595      0.19425753570114
  C   3.12007539727210     -0.17176374274453      0.02051324121772
  H   1.21011386346578     -1.13003393720723      0.21261004885720
  C   3.80409276003123      1.03372918671015     -0.13240264499721
  H   3.67079943131281     -1.10209417305395      0.10303146130508
  C   3.08400373465674      2.22225233562774     -0.23496528735705
  H   4.88716330737422      1.04563747216314     -0.17205932003003
  H   3.60697523780642      3.16436513720879     -0.35601979413170
  H   1.13695434923276      3.13761220105283     -0.26370076509503
