19
Coordinates from ORCA-job opt
  C   1.00388763070867      0.99324885573488      0.01725989825430
  C   -0.44741811982489      0.99020611845006      0.05802613127530
  C   1.75390770325175      0.38465939741673      1.03249945752018
  C   1.67479713748544      1.59175505061914     -1.05781514277471
  C   -1.41945419540055      1.33759545451161     -0.85042802898224
  O   -1.03945596606370      0.55407793154538      1.20862685772984
  C   -2.67033750685913      1.10264161265252     -0.22037520065636
  H   -1.25243052595749      1.70320822096151     -1.85093953888445
  C   -2.38306142506379      0.62714255485161      1.02704428514352
  H   -3.65534192099939      1.25861850585380     -0.63008848085442
  H   -2.98747945003381      0.31405917422268      1.86197048147125
  C   3.14343281973732      0.37388624798984      0.96727009203746
  H   1.24210093964314     -0.08131126648449      1.86610469408403
  C   3.80485677055941      0.96142262827257     -0.10935325128714
  H   3.71189796190710     -0.10133518490582      1.75896013125744
  C   3.06314738945360      1.57242198413861     -1.11974247760102
  H   4.88754876771624      0.94872609509370     -0.15849347273792
  H   3.56838190358189      2.03880394404089     -1.95812306907376
  H   1.10741708615819      2.08027367503474     -1.84240336592130
