19
Coordinates from ORCA-job opt
  C   1.00311904070409      1.00501172482820     -0.00223452787245
  C   -0.44751707747316      0.97864535605388      0.05317568244257
  C   1.72758614987744     -0.19478916111191     -0.00490350491266
  C   1.69911389693456      2.21925729346671     -0.07269311116429
  C   -1.36856689911216     -0.02441236339631      0.24542655331967
  O   -1.10074153257611      2.16747635912319     -0.10204071874086
  C   -2.65087274402893      0.58422241101351      0.20205974517443
  H   -1.14861105362029     -1.06757435472870      0.40648931823756
  C   -2.43167681489560      1.91529371956135     -0.01011832986093
  H   -3.61121411521164      0.10719650306985      0.31426402140615
  H   -3.07970394856098      2.76889097406611     -0.11896279593907
  C   3.11549530635643     -0.17880456104902     -0.07633710444780
  H   1.20130838833278     -1.14205943978967      0.03638693422026
  C   3.80308303734603      1.03179668453842     -0.15292574806808
  H   3.66212237424449     -1.11520340734581     -0.08010207515908
  C   3.08810962242812      2.22785371493460     -0.14859550768394
  H   4.88522286332923      1.04211508080279     -0.21329376300176
  H   3.61416891565165      3.17431196083727     -0.20543340245367
  H   1.14597359027401      3.15087250512550     -0.07016166549605
