19
Coordinates from ORCA-job opt
  C   1.00226750424036      1.00427990382667     -0.01764319931586
  C   -0.44772313553040      0.97813730646359      0.05324941207591
  C   1.73203352765377     -0.18758322323995      0.08809530528894
  C   1.69359583545531      2.21160480599537     -0.18496959380318
  C   -1.37549151488940     -0.03662308665194      0.07451067052286
  O   -1.09227021667054      2.18079349921640      0.10409409888750
  C   -2.65333025035428      0.57935088782455      0.14462333217545
  H   -1.16221379019720     -1.09272147599612      0.03410366787444
  C   -2.42459617402691      1.92551941698001      0.15920816326153
  H   -3.61764135827532      0.09836632626681      0.17784584375500
  H   -3.06643082095924      2.78933817030408      0.20711018590208
  C   3.12033038113725     -0.17110811468914      0.02458833964095
  H   1.21074553560934     -1.12766630150257      0.23138872000383
  C   3.80370770587911      1.03328667111163     -0.13902453237911
  H   3.67128584626582     -1.10106881209870      0.10958956935272
  C   3.08343383039066      2.22165779239034     -0.24282099964155
  H   4.88655481522845      1.04455234164741     -0.18443081037376
  H   3.60594298614962      3.16303599595895     -0.37124862310800
  H   1.13619929289359      3.13694989619262     -0.26827055011974
