19
Coordinates from ORCA-job opt
  C   0.99995014336227      1.00658048919801     -0.07057971780706
  C   -0.44883864739562      0.98187065082363      0.02184137991383
  C   1.70303500593855      2.21830437514376     -0.04105493527672
  C   1.71848541664094     -0.19501370062315     -0.13542109329563
  C   -1.36453452668336     -0.02074701870355      0.23784756174888
  O   -1.10459592484220      2.17180727658638     -0.11393375819977
  C   -2.64719296735910      0.58939296409620      0.23195629848906
  H   -1.13821967843614     -1.06282554776757      0.39734756945669
  C   -2.43247458820487      1.92049996518734      0.01583163670985
  H   -3.60513547070930      0.11508313434289      0.37261293559316
  H   -3.08282955285002      2.77488026350611     -0.07112277907353
  C   3.09386146624743      2.22249828719996     -0.06435803244416
  H   1.15373570006307      3.15087055159020      0.01096232476932
  C   3.80335910041720      1.02386690902930     -0.10793865932493
  H   3.62615244268783      3.16678359476422     -0.03682673235592
  C   3.10820194132942     -0.18408968434611     -0.15182845204214
  H   4.88716346651000      1.03048869286164     -0.11938278740238
  H   3.65089759418555     -1.12163274672031     -0.19826777615933
  H   1.18538107909837     -1.13851645616896     -0.17768598329922
