19
Coordinates from ORCA-job opt
  C   0.99994958666699      1.00633427794791     -0.07002072601811
  C   -0.44882460882831      0.98192965331641      0.02248407659959
  C   1.70296640670851      2.21813165956273     -0.04265629673669
  C   1.71855740015770     -0.19531338483118     -0.13348315416742
  C   -1.36487807351961     -0.02092980939700      0.23618399192562
  O   -1.10421454821405      2.17242036051997     -0.11058966519953
  C   -2.64730501932699      0.58965475296020      0.23179739404959
  H   -1.13916506158587     -1.06358569625579      0.39263910228726
  C   -2.43225342087995      1.92118287538239      0.01853313646276
  H   -3.60532117395834      0.11521320661499      0.37144580297987
  H   -3.08240429538263      2.77590247903179     -0.06640103062023
  C   3.09382819756237      2.22241315123046     -0.06669608007288
  H   1.15376977367468      3.15080169092434      0.00823993885921
  C   3.80339310036922      1.02381469987295     -0.10902506636167
  H   3.62599048089982      3.16680572959772     -0.04086383032449
  C   3.10827329417228     -0.18428232657721     -0.15070228162319
  H   4.88718186654275      1.03056805656778     -0.12106314999194
  H   3.65100108984692     -1.12184989119602     -0.19598908059324
  H   1.18585400509451     -1.13911248527245     -0.17383408145451
