19
Coordinates from ORCA-job opt
  C   1.00452039800035      1.01763155122890      0.03264517304366
  C   -0.44693892669347      1.00285977058571      0.06496053308039
  C   1.75368308777442      0.39334430835677      1.03890331265892
  C   1.67560123108727      1.61744786664525     -1.04168306851071
  C   -1.41571385322219      1.32421307329548     -0.85632410112007
  O   -1.04250448607315      0.58147021346760      1.21917336921035
  C   -2.66875559550641      1.08800262536333     -0.23064617526493
  H   -1.24408917335833      1.67111594216694     -1.86269061244079
  C   -2.38534946751430      0.63721075846739      1.02681701783176
  H   -3.65259937569694      1.22624069014986     -0.64937740487415
  H   -2.99251741631466      0.33222715614289      1.86275622758518
  C   3.14227119700129      0.36274263077503      0.96226988260131
  H   1.24112402860160     -0.07387535243021      1.87140961610544
  C   3.80321228710182      0.94354477690249     -0.11839273545429
  H   3.71020320941777     -0.12696375905869      1.74546153175285
  C   3.06293676599695      1.57760696175521     -1.11553287622514
  H   4.88499578971758      0.91250054837983     -0.17813525560965
  H   3.56838631804797      2.04284852399453     -1.95441235179633
  H   1.10793298163239      2.11993171381168     -1.81720108257377
