19
Coordinates from ORCA-job opt
  C   1.00341964998871      0.96651319727032      0.00316361555846
  C   -0.44776413775297      0.97463025851426      0.04925854155871
  C   1.75515180380243      0.45043399211106      1.06728500156674
  C   1.67357428778042      1.48307712366712     -1.11428441765606
  C   -1.41818895435612      1.48515286044709     -0.78087211288731
  O   -1.04252835023070      0.36912406732016      1.11874577692822
  C   -2.66980206322738      1.17285141534063     -0.18752103970353
  H   -1.25116518466039      2.02381176338342     -1.69986854333241
  C   -2.38517068886421      0.49577268623360      0.96369015687848
  H   -3.65319752684292      1.41572724139305     -0.55686492781715
  H   -2.99071899228134      0.05883034701009      1.74012829984369
  C   3.14504575760323      0.45390740367449      1.01062275152187
  H   1.24447097342727      0.04992408376946      1.93488344172795
  C   3.80589489718834      0.97210003995736     -0.10128192037423
  H   3.71465344022214      0.05134045096980      1.84089036475150
  C   3.06238993831195      1.48625244844638     -1.16297241282887
  H   4.88903055739578      0.97399794027857     -0.14168153374591
  H   3.56662533290127      1.88913340520704     -2.03427882783800
  H   1.10467925959448      1.87752227500608     -1.94904221415213
