19
Coordinates from ORCA-job opt
  C   1.00230414481818      1.00431508551398     -0.01783788221261
  C   -0.44794814731212      0.97784419314548      0.04670171026570
  C   1.72709426986750     -0.19523542124664     -0.02159883840346
  C   1.69819821769635      2.21904993364442     -0.07915575951149
  C   -1.36713197128341     -0.02352050862033      0.25503677963340
  O   -1.10233948839266      2.16499214649057     -0.11743759453886
  C   -2.65008862352163      0.58428559861420      0.21320981656143
  H   -1.14409347894901     -1.06428305811341      0.42690738570053
  C   -2.43260535398591      1.91301421544752     -0.01460989231815
  H   -3.61011428659100      0.10953209055645      0.33698872839771
  H   -3.08189626745388      2.76514709193253     -0.12731601959515
  C   3.11560265200746     -0.17853673012184     -0.08084711877838
  H   1.20078288480885     -1.14283581417127      0.01131102966380
  C   3.80337175989172      1.03282528623075     -0.14345243282242
  H   3.66274658303180     -1.11460277869483     -0.08422621012677
  C   3.08781095088049      2.22853001216611     -0.14341828476187
  H   4.88604042177204      1.04376932223795     -0.19312251859615
  H   3.61398786886147      3.17537847786131     -0.19147947829755
  H   1.14467886385373      3.15043085712703     -0.07565342025969
