19
Coordinates from ORCA-job opt
  C   1.00227515365408      1.00431187131312     -0.01986768437083
  C   -0.44812855766329      0.97791530512593      0.04483481608540
  C   1.72601768794584     -0.19567966114024     -0.04043439149400
  C   1.69917161211831      2.21921991538361     -0.06411135546408
  C   -1.36558957854497     -0.01841466090860      0.28251097821569
  O   -1.10457303360399      2.15866936716898     -0.15163247781857
  C   -2.64917748601965      0.58596454649867      0.22513268325235
  H   -1.13913692741091     -1.05259069970503      0.48733899716120
  C   -2.43407970159450      1.90802531939795     -0.04052562171230
  H   -3.60841128872647      0.11375816787732      0.36442088256838
  H   -3.08431226130311      2.75584975103934     -0.17788744229856
  C   3.11447709470553     -0.17907371768475     -0.09771425309989
  H   1.19759085724106     -1.14264741294822     -0.02475649294415
  C   3.80329371187955      1.03237721415460     -0.14308777467380
  H   3.66096929957705     -1.11547031453782     -0.11416661405372
  C   3.08863689596372      2.22857873486416     -0.12772722060221
  H   4.88603493768955      1.04296689366165     -0.19201841834623
  H   3.61558029665378      3.17566186179617     -0.16263567520112
  H   1.14576128743839      3.15067651864314     -0.04767293520355
