19
Coordinates from ORCA-job opt
  C   1.00187223800704      0.96680870450091     -0.03077460007109
  C   -0.44764652950314      0.97374536917918      0.05527970072777
  C   1.76853132896171      1.54359381390534      0.99086934235431
  C   1.65547006707806      0.38716163462349     -1.12642287726574
  C   -1.34229637417427      1.61181422192823      0.88194433257426
  O   -1.13172792472251      0.21754422799292     -0.85240995844534
  C   -2.64013824062684      1.22197604139064      0.45792683073596
  H   -1.09282785409097      2.28799734031182      1.68400261399131
  C   -2.45570725633576      0.37595309352854     -0.59797317556439
  H   -3.58880527404157      1.52527378130947      0.87090430110824
  H   -3.12550594434163     -0.17145965870985     -1.23999027071562
  C   3.15613932541919      1.54520367261503      0.91391629412156
  H   1.27509182929688      1.97945481211473      1.85271070500090
  C   3.80188643505860      0.96585303783164     -0.17764484001335
  H   3.73621055623953      1.99414932329097      1.71249488281887
  C   3.04477686780321      0.38663334922466     -1.19408843076490
  H   4.88433912817054      0.96446222780189     -0.23358462557821
  H   3.53805292295226     -0.06629561721380     -2.04695895578273
  H   1.06868669884968     -0.05976637562583     -1.92020126923181
