19
Coordinates from ORCA-job opt
  C   1.00244211143327      1.00481877525736     -0.01558381626575
  C   -0.44772398621992      0.97830183586235      0.05116535722398
  C   1.73017515300825     -0.19201369394097      0.03620909416311
  C   1.69626826058448      2.21679490731151     -0.13207002633820
  C   -1.37197698529651     -0.03399981288006      0.16360705470152
  O   -1.09773668194382      2.17774156349166     -0.00389980701091
  C   -2.65201419465508      0.58036653270584      0.17759623320238
  H   -1.15694242709085     -1.08858400001408      0.22802059353276
  C   -2.42895781483355      1.92355482520803      0.07347886614879
  H   -3.61351530972420      0.09862514682755      0.25431927258584
  H   -3.07414812888871      2.78563880753786      0.04185508150411
  C   3.11829091443401     -0.17532952781695     -0.02712814900436
  H   1.20703716782704     -1.13762968368473      0.12631767662677
  C   3.80400533261626      1.03327650748463     -0.14302721033383
  H   3.66731173910645     -1.10945873419410      0.01413947002177
  C   3.08588148154271      2.22622950905825     -0.19494767548462
  H   4.88671243043549      1.04433295979383     -0.19228534707537
  H   3.61018562803757      3.17112642122151     -0.28502554660778
  H   1.14110330962712      3.14630766077051     -0.17274112159020
