19
Coordinates from ORCA-job opt
  C   1.00193310840025      0.96691360709479     -0.03117198336675
  C   -0.44742920160404      0.97448144359277      0.05470037988745
  C   1.76839754975343      1.55412256394463      0.98477097292151
  C   1.65579705581493      0.37711469151281     -1.12123349754673
  C   -1.34180286565694      1.59676411627507      0.89370522499962
  O   -1.13230182957191      0.23636691356631     -0.86744218819910
  C   -2.64001510891933      1.21553873985325      0.46267362271738
  H   -1.09512588332905      2.25539377349105      1.71103168474184
  C   -2.45628920765809      0.39052737872393     -0.60986531673712
  H   -3.58758340020259      1.51156869152718      0.88332094467883
  H   -3.12681031157333     -0.14289222782135     -1.26279696380803
  C   3.15603675608147      1.55522817218666      0.90816753632162
  H   1.27531781410137      2.00046051985813      1.84138747713117
  C   3.80206333216759      0.96598075025052     -0.17798634179472
  H   3.73585460086696      2.01245836132444      1.70219198111700
  C   3.04520308301776      0.37698736411457     -1.18891386795577
  H   4.88448907247935      0.96462469846265     -0.23433083150224
  H   3.53895037452184     -0.08363079940753     -2.03736992125527
  H   1.06971706131035     -0.07790875854987     -1.91083991235069
