19
Coordinates from ORCA-job opt
  C   1.00169039823911      0.97235821346710     -0.03455821915038
  C   -0.44772457483917      0.98155069873680      0.05036772502852
  C   1.76617637618241      1.64020057370183      0.93197430406724
  C   1.65814426036029      0.30180570252549     -1.07533619300825
  C   -1.33824330279100      1.46465823117225      0.98046325522715
  O   -1.13752706688045      0.39949668381916     -0.97412226910597
  C   -2.63874118249842      1.16308873854471      0.49682909863782
  H   -1.08767703043516      1.96802321271901      1.90048712903269
  C   -2.46033565638556      0.51580923211300     -0.69227079644317
  H   -3.58422220155563      1.39005161871502      0.96268425156577
  H   -3.13425745442733      0.09827758002937     -1.42162773962446
  C   3.15394963494349      1.63398693714312      0.85953645111142
  H   1.27150644041185      2.17083963429564      1.73805689983298
  C   3.80241858304561      0.96579842823849     -0.17842228579440
  H   3.73179101068897      2.15559499864857      1.61436269354388
  C   3.04752987435640      0.30222749641065     -1.14351006468043
  H   4.88485811750477      0.96371934253686     -0.23442736667101
  H   3.54284930795094     -0.22012659190445     -1.95447205696138
  H   1.07421446612887     -0.21726173091262     -1.82601481660802
