19
Coordinates from ORCA-job opt
  C   1.00171159524590      1.00451661609532     -0.03397160312124
  C   -0.44828947843999      0.98139260778132      0.03771970886499
  C   1.70388434507550      2.21715227334576     -0.02497738326036
  C   1.72037674255836     -0.19689169735137     -0.09822878280676
  C   -1.36943698255299     -0.02298335762354      0.22089475150813
  O   -1.09963095871343      2.17536708701977     -0.08360874216817
  C   -2.65045949112925      0.59014372850787      0.20841523308144
  H   -1.14924442507511     -1.06931675678241      0.35970001644407
  C   -2.42993778399786      1.92477860065179      0.02150101114119
  H   -3.61115071364040      0.11460239068258      0.32395799006193
  H   -3.07724933124324      2.78207722357665     -0.05898156879219
  C   3.09403326058348      2.22262517649814     -0.07581493148250
  H   1.15501515024629      3.14997515050871      0.02557145506811
  C   3.80384480919765      1.02466892723620     -0.13032757658245
  H   3.62516749787229      3.16791889276586     -0.06730729382061
  C   3.10955903101543     -0.18442159621060     -0.14297527963784
  H   4.88707024082872      1.03247755682708     -0.16732804208350
  H   3.65202162202238     -1.12196230476032     -0.19207199767197
  H   1.18911387014624     -1.14201951876880     -0.12216796474224
