19
Coordinates from ORCA-job opt
  C   1.00284650192065      1.00472965486852     -0.00589374306811
  C   -0.44762897783800      0.97830287622642      0.05323644515154
  C   1.72787771009107     -0.19472758608275     -0.00461452586769
  C   1.69853980145291      2.21890840713039     -0.07969335415841
  C   -1.36853038037973     -0.02522180170807      0.24317062039329
  O   -1.10075563737443      2.16798862742957     -0.09639192085966
  C   -2.65079066810174      0.58400302405273      0.20462240570134
  H   -1.14853293843405     -1.06914653097008      0.39914523119092
  C   -2.43155984605314      1.91573275900836     -0.00304068142323
  H   -3.61132436759391      0.10742629507806      0.31707076562975
  H   -3.07972102566139      2.76995520763964     -0.10606113100888
  C   3.11582092328676     -0.17849376983871     -0.07461769396147
  H   1.20252720021371     -1.14237610143771      0.04020988169952
  C   3.80316997132953      1.03220062927009     -0.15314350997867
  H   3.66285719579501     -1.11465244666812     -0.07490862691773
  C   3.08765144851397      2.22788956603840     -0.15390092627218
  H   4.88538537921914      1.04277177648994     -0.21205707554763
  H   3.61337851046305      3.17440981594464     -0.21266895770375
  H   1.14518919915055      3.15039759752867     -0.08046420299895
