19
Coordinates from ORCA-job opt
  C   1.00034500997460      1.00868394285065     -0.06202888101208
  C   -0.44836984824008      0.99804988571274      0.03351908811020
  C   1.66295928347533      0.25332078535953     -1.03872319234241
  C   1.75860319132654      1.74349595013372      0.85957300237761
  C   -1.33610038103222      1.45053119170988      0.98111295657685
  O   -1.13878570124369      0.42379817323034     -0.99510247928124
  C   -2.63688410547772      1.13684619336346      0.50499658589248
  H   -1.08092322951392      1.93417547060601      1.91038578884874
  C   -2.46044334939403      0.51406283047332     -0.69739082733552
  H   -3.58155789794854      1.33790590972066      0.98414214818888
  H   -3.13561404391102      0.09934395493789     -1.42718314853032
  C   3.05314720878746      0.22855909985360     -1.08222821182505
  H   1.08307326534757     -0.31858223067634     -1.75335486102441
  C   3.80201178344141      0.94639745522096     -0.15175142966300
  H   3.55371007122635     -0.36279660379789     -1.84083568351419
  C   3.14732664854860      1.70935457154616      0.81450325014383
  H   4.88506882225676      0.92023753793683     -0.18492300181399
  H   3.72091609316508      2.28036045153646      1.53602726121964
  H   1.25791717921148      2.34635543028201      1.60926263498398
