19
Coordinates from ORCA-job opt
  C   1.00234297190160      1.00438539191299     -0.01583606336626
  C   -0.44799876794472      0.97774245042409      0.04762612481943
  C   1.72721175194101     -0.19510156549374     -0.01982077877142
  C   1.69827091516461      2.21904713253581     -0.07795485567651
  C   -1.36733731809660     -0.02379697929668      0.25422524464548
  O   -1.10217003384097      2.16502936802179     -0.11597651091115
  C   -2.65026408576935      0.58412766189458      0.21201858267450
  H   -1.14395879512529     -1.06456867943244      0.42552698419471
  C   -2.43243937746429      1.91299666891495     -0.01459341454825
  H   -3.61062632518339      0.10969952413861      0.33433567029804
  H   -3.08149458163031      2.76530138171765     -0.12739310622141
  C   3.11564279803558     -0.17843770022358     -0.08060405194013
  H   1.20095872823203     -1.14270633095397      0.01379451125262
  C   3.80338362770742      1.03285670345679     -0.14461233360310
  H   3.66271172589811     -1.11454356816447     -0.08438126198713
  C   3.08776656803925      2.22855944156880     -0.14372598615445
  H   4.88597987518846      1.04366693753965     -0.19570255620296
  H   3.61376742207605      3.17546293500434     -0.19252217559380
  H   1.14465190087078      3.15037822643479     -0.07440402290821
