19
Coordinates from ORCA-job opt
  C   1.00246010870165      1.00458199202880     -0.01331568986927
  C   -0.44792021594440      0.97780109132252      0.04884301051346
  C   1.72740688146356     -0.19488471691305     -0.01619626951440
  C   1.69834891451399      2.21913553919034     -0.07786748035665
  C   -1.36759011377403     -0.02427333229071      0.25132573159117
  O   -1.10191261055437      2.16563206160546     -0.11164850224545
  C   -2.65042730827315      0.58383618340769      0.20958822375206
  H   -1.14500045400046     -1.06576190629049      0.41931189844404
  C   -2.43226923511761      1.91342302184214     -0.01246347984193
  H   -3.61088085266470      0.10889225364840      0.32918393088264
  H   -3.08118135114533      2.76612254636537     -0.12312557847530
  C   3.11573392084854     -0.17832528211027     -0.07900675934074
  H   1.20135034500740     -1.14251484006651      0.01974852649214
  C   3.80338941449814      1.03285712083677     -0.14614875270177
  H   3.66278047635231     -1.11445274330075     -0.08209425181140
  C   3.08774987833461      2.22853819625036     -0.14549183839803
  H   4.88590364790719      1.04362598361106     -0.19900223291110
  H   3.61369678332862      3.17537105031659     -0.19638315877875
  H   1.14476377051804      3.15049478054630     -0.07525732743072
