19
Coordinates from ORCA-job opt
  C   1.00078487085010      0.99713850532938     -0.05292057918759
  C   -0.44831231838560      0.99384171214999      0.03744381035673
  C   1.66282803775678      0.24602640159706     -1.03327048747062
  C   1.75946907838426      1.73282650747010      0.86758943688992
  C   -1.33755457547969      1.45662613360386      0.97862244848440
  O   -1.13735866664161      0.41621953254925     -0.99017505401343
  C   -2.63803105766256      1.14646898888033      0.49916302567358
  H   -1.08331224056345      1.94538978131134      1.90543886228615
  C   -2.45971600920968      0.51507860010730     -0.69845514951355
  H   -3.58379551512815      1.35570282748905      0.97257406838285
  H   -3.13385390398047      0.09947015778340     -1.42868629187667
  C   3.05288553215722      0.22885197292172     -1.08342268289081
  H   1.08254895139286     -0.32622007990134     -1.74727528042463
  C   3.80231870051600      0.95106272784334     -0.15675724706748
  H   3.55290379524953     -0.35825140264888     -1.84565754863474
  C   3.14814485076510      1.70641860928053      0.81575852317414
  H   4.88530859367126      0.93222434358542     -0.19604780486828
  H   3.72198432540393      2.27918756273673      1.53566201170284
  H   1.25915855090415      2.33203611791142      1.62041493899718
