19
Coordinates from ORCA-job opt
  C   1.00109655517737      0.98850236430858     -0.04583890231664
  C   -0.44826846026861      0.98995159468551      0.04071065556745
  C   1.66281548782523      0.24106417370525     -1.02921777899519
  C   1.75995162406870      1.72520913885315      0.87367800321519
  C   -1.33867160262564      1.45936721345145      0.97754885154736
  O   -1.13617677209607      0.41034325449360     -0.98649326708226
  C   -2.63877905749478      1.15158702489163      0.49556362205418
  H   -1.08476744817050      1.95145561502735      1.90267728603841
  C   -2.45907226562369      0.51492069183371     -0.69904632430431
  H   -3.58539743945106      1.36582616037819      0.96499626860232
  H   -3.13237931112958      0.09903676510005     -1.42987574503611
  C   3.05273988549135      0.23050386850076     -1.08492402896395
  H   1.08239366350726     -0.33181763667937     -1.74256135702878
  C   3.80237600026476      0.95650911783044     -0.16140676945785
  H   3.55238357130127     -0.35292602613747     -1.85019718732640
  C   3.14852125561579      1.70551958270676      0.81620718923992
  H   4.88525595952905      0.94389387466316     -0.20569453407375
  H   3.72248299210022      2.27988904726584      1.53472174448849
  H   1.25989536197891      2.32126417512143      1.62915327383194
