19
Coordinates from ORCA-job opt
  C   1.00201455012463      0.96171742030551     -0.02676181034916
  C   -0.44760100375557      0.97733610872449      0.05318922237379
  C   1.76560348277562      1.64559713762252      0.92899780111860
  C   1.65887881341698      0.28162952122038     -1.06104021082727
  C   -1.33833117804524      1.44215532076118      0.99217432341249
  O   -1.13668735061201      0.42329704019019     -0.98726083842712
  C   -2.63895077803121      1.15910382648002      0.49724698243484
  H   -1.08723687231105      1.91926623740729      1.92591050633744
  C   -2.45994410092330      0.53987142516354     -0.70658814029139
  H   -3.58503833539397      1.37906288582516      0.96517083194648
  H   -3.13375417499028      0.14473931461315     -1.44839727551599
  C   3.15325128366236      1.64761862643102      0.85127801219505
  H   1.27080438739761      2.18665282690780      1.72806237733927
  C   3.80196998756813      0.97397117225763     -0.18297371954032
  H   3.73039564101456      2.18314870066150      1.59677936516563
  C   3.04795075442878      0.29146617917325     -1.13551751605381
  H   4.88407121351626      0.98055192422448     -0.24459134351218
  H   3.54340224052240     -0.23705957534312     -1.94233356038922
  H   1.07560143963530     -0.25002709262600     -1.80334600741712
