19
Coordinates from ORCA-job opt
  C   1.00196761549063      1.00316564602867     -0.02824633784436
  C   -0.44773795387253      0.97852539027010      0.04806693688557
  C   1.73084215614434     -0.18952477428645      0.07466103131458
  C   1.69434828020526      2.21127407050573     -0.18585432455042
  C   -1.37629682559281     -0.03560992414393      0.07464594730161
  O   -1.09164999427031      2.18144091125482      0.09792999623203
  C   -2.65332949889066      0.58119726380655      0.14775231412022
  H   -1.16526832952493     -1.09228691513728      0.03710382415327
  C   -2.42404118804272      1.92736015935956      0.15803214055749
  H   -3.61706899337529      0.09936731756130      0.18572443969968
  H   -3.06493894008658      2.79180471051377      0.20694617378568
  C   3.11953721726024     -0.17263506483902      0.02074077690524
  H   1.20853040383289     -1.13021772359030      0.20987857999091
  C   3.80410749842887      1.03274147945345     -0.12967091057653
  H   3.66983251229166     -1.10313755496788      0.10436560399148
  C   3.08455658337009      2.22145903786443     -0.23438375872895
  H   4.88727835810529      1.04443212816544     -0.16677684241745
  H   3.60803541670523      3.16349090152592     -0.35393363190332
  H   1.13769768182133      3.13725194065509     -0.26698395891672
