19
Coordinates from ORCA-job opt
  C   1.00184487503868      0.96386553566030     -0.02877416846056
  C   -0.44771255111272      0.97887425871374      0.05250498941578
  C   1.76563665312125      1.64823642854871      0.92657925453291
  C   1.65862671143699      0.28193028084426     -1.06177304902597
  C   -1.33756792722869      1.43969172510360      0.99415141018662
  O   -1.13738415576210      0.42786048571347     -0.98921746555729
  C   -2.63872929302311      1.15758089564709      0.49952643317269
  H   -1.08483685729914      1.91309665642977      1.92929746641250
  C   -2.46027792135091      0.54250454492346     -0.70651583605662
  H   -3.58498463318173      1.37533329581013      0.96807514023743
  H   -3.13480088334031      0.14944397371749     -1.44879252725973
  C   3.15334555317369      1.64826080220706      0.85022490412905
  H   1.27052419302076      2.19117409793800      1.72415181621143
  C   3.80196910834367      0.97198519671113     -0.18243443832505
  H   3.73062459648629      2.18401416677894      1.59543344735620
  C   3.04774542135533      0.28984234892397     -1.13509861823035
  H   4.88412910311314      0.97677574641433     -0.24292332128162
  H   3.54322288025375     -0.24038269037651     -1.94076298239476
  H   1.07502412695514     -0.24998774970895     -1.80365245506264
