19
Coordinates from ORCA-job opt
  C   1.00161731665912      0.97726106726885     -0.03687338546097
  C   -0.44797867726991      0.98435529248644      0.04437774853813
  C   1.66365653047425      0.23793677893899     -1.02622946199788
  C   1.76015965887266      1.71196698076430      0.88453292833458
  C   -1.34090374308574      1.46938973195689      0.97087131414483
  O   -1.13400615666948      0.39389552068547     -0.97789366949015
  C   -2.63996703102473      1.16077432638183      0.48710702384097
  H   -1.09132255995552      1.97435046813420      1.89026530502925
  C   -2.45768782390883      0.50729340248284     -0.69798932726741
  H   -3.58709050371676      1.38559581178165      0.95058424380756
  H   -3.12930038480363      0.08449669765633     -1.42641858756605
  C   3.05337231170073      0.23603431380389     -1.08785427411577
  H   1.08379591419233     -0.33329060063650     -1.74133868166355
  C   3.80262485995206      0.96384634585175     -0.16550248326692
  H   3.55328778254951     -0.33996947282616     -1.85860322899691
  C   3.14849082723043      1.70141005181168      0.82058555075715
  H   4.88532959593892      0.95915847957838     -0.21560362129921
  H   3.72206490317344      2.27513775195765      1.53996057660758
  H   1.26025517969115      2.30045805192148      1.64602203006479
