19
Coordinates from ORCA-job opt
  C   1.00280199035260      1.00487720129935     -0.00618240550744
  C   -0.44764880747248      0.97813414744779      0.05257560891011
  C   1.72792830730584     -0.19457469504820     -0.00583038406674
  C   1.69845656214486      2.21913543705593     -0.07831827193578
  C   -1.36829629144874     -0.02528564118879      0.24424399387223
  O   -1.10102135183989      2.16743486686976     -0.09941774419859
  C   -2.65075530571377      0.58354905957267      0.20431022426218
  H   -1.14788140253894     -1.06876052452707      0.40254457504442
  C   -2.43175371669156      1.91495322253361     -0.00581791101632
  H   -3.61130788161081      0.10716799806437      0.31731593396572
  H   -3.08019194003573      2.76875054237438     -0.11060339705461
  C   3.11591733094294     -0.17824650399899     -0.07493722120833
  H   1.20247632829707     -1.14223902998924      0.03727970124233
  C   3.80322847217249      1.03261212553651     -0.15176539701760
  H   3.66299483871050     -1.11436924810735     -0.07596795909130
  C   3.08760963434436      2.22823929945153     -0.15178964487564
  H   4.88547032591887      1.04330477765852     -0.21002487325033
  H   3.61333817015574      3.17483073455924     -0.20926775484954
  H   1.14503573700663      3.15058523043598     -0.07834607322478
