19
Coordinates from ORCA-job opt
  C   1.00156395080047      0.97994566927025     -0.03967411165877
  C   -0.44794663099803      0.98582978126954      0.04361778498711
  C   1.66321442455007      0.23898622864577     -1.02802467425969
  C   1.76055298409670      1.71474845557840      0.88141472430026
  C   -1.33974117162215      1.46688375046650      0.97331201644881
  O   -1.13546204754476      0.39810005213398     -0.97918795629761
  C   -2.63929972366755      1.15893578339685      0.49077936820323
  H   -1.08996273685974      1.96858599367804      1.89448669385363
  C   -2.45867672295628      0.50942404046795     -0.69675477477673
  H   -3.58550337307232      1.38203404593485      0.95702595028874
  H   -3.13127426247333      0.08815685345265     -1.42517866993607
  C   3.05294679268918      0.23484718175874     -1.08845937821380
  H   1.08298028129258     -0.33236492130877     -1.74279985970834
  C   3.80262840118679      0.96177122469239     -0.16579778495293
  H   3.55274854225220     -0.34259971189821     -1.85825397038804
  C   3.14883357618146      1.70183354686407      0.81865556013204
  H   4.88538802601729      0.95488197837566     -0.21483594159734
  H   3.72279666296847      2.27532088151498      1.53796025457643
  H   1.26061202715894      2.30478116570636      1.64171576899907
