19
Coordinates from ORCA-job opt
  C   1.07342613221845      0.94771329423456      0.02892579533427
  N   1.82920660810976      2.14098581164569      0.14789966421962
  C   1.14371270432081     -0.00529743097008      1.04519275391567
  C   0.26924673576371      0.72797930907413     -1.08962382876988
  C   1.89697314056889      3.18563739802892     -0.72729263788901
  N   2.59881745399686      2.33393703723021      1.23485013504816
  C   2.76223243646532      4.10872738814125     -0.17303544989849
  H   1.34481907156550      3.19942114717621     -1.65094670745428
  C   3.16754116919654      3.53341983592470      1.03987242581360
  H   3.05116097412027      5.05784783121176     -0.59377356709946
  H   3.84264421657133      3.92114870329015      1.78716322703618
  C   0.40424789291146     -1.17816531853161      0.93384596340102
  H   1.77381886395320      0.18672728879479      1.90285165320883
  C   -0.40204653301502     -1.40804254147815     -0.17862100933771
  H   0.46175988920637     -1.91607220162540      1.72583344921986
  C   -0.46499389197911     -0.45022052330680     -1.18734075693144
  H   -0.97561142535339     -2.32376666574240     -0.25933574547512
  H   -1.08791210967630     -0.61495987361392     -2.05894368738779
  H   0.20705767105535      1.46018051051597     -1.88392267695404
