19
Coordinates from ORCA-job opt
  C   1.11096417168699      0.92849663704611     -0.03169836381518
  N   1.89032688455206      2.10315075944744      0.08531388703221
  C   0.39993829141294      0.46333506643606      1.07268024814957
  C   1.09180520343128      0.23954646343838     -1.24192967956611
  C   1.52127383102869      3.27305301917008      0.67890320217657
  N   3.09244169134353      2.17861952754487     -0.51336872544850
  C   2.56213932714547      4.15974400755913      0.47298913238795
  H   0.56269949060374      3.37631742951753      1.16156053291565
  C   3.50669497739487      3.43388003728676     -0.26750389069346
  H   2.61787973427449      5.18352866739199      0.80472710114645
  H   4.47179086431076      3.74867868050406     -0.63374138256593
  C   -0.37195713985808     -0.68855037842713      0.94928774099065
  H   0.46715124330262      0.99040603359064      2.01763803169984
  C   -0.40764567669135     -1.38237739699420     -0.25854910563180
  H   -0.92810123492621     -1.05426209700387      1.80470236166081
  C   0.32983412943206     -0.91976603516892     -1.34758374249385
  H   -1.00239145980976     -2.28374669177122     -0.34891757047792
  H   0.30873136154841     -1.46032344431013     -2.28684364020544
  H   1.67252330981748      0.61746971474240     -2.07406413726152
