19
Coordinates from ORCA-job opt
  C   1.11040578007887      0.92778127274610     -0.02318291796418
  N   1.89416936016947      2.09948472303357      0.10053867713538
  C   0.42107178438607      0.44415470874649      1.08671077230832
  C   1.07282375378487      0.25716638966880     -1.24299008095407
  C   1.50309543922376      3.28815729815484      0.63987311089743
  N   3.11701547291993      2.15631697153703     -0.45685963028319
  C   2.55226445398423      4.16796061276811      0.44583821908717
  H   0.52762361782650      3.40427904869216      1.08457901169807
  C   3.52326765580593      3.41892198928869     -0.23485338827483
  H   2.59710938491863      5.20149934007524      0.74762799421000
  H   4.50204282931383      3.72188617623996     -0.57376623126120
  C   -0.35176847589814     -0.70673050981788      0.95906726311102
  H   0.50399841590819      0.95947578267228      2.03701063224422
  C   -0.40715279211751     -1.38162606770640     -0.25879853866627
  H   -0.89230036104083     -1.08713766746102      1.81806293526524
  C   0.31047046669721     -0.90151411603231     -1.35359885438623
  H   -1.00214558766688     -2.28248709730382     -0.35277346017303
  H   0.27409869714697     -1.42830211819924     -2.30017437599810
  H   1.64000910455889      0.64791326289739     -2.07871113799573
