19
Coordinates from ORCA-job opt
  C   1.06790024426304      0.96049959939495     -0.07889075305981
  N   1.83449608111315      2.14724792693565      0.01540078736867
  C   0.06844543166259      0.69312300490328      0.85627400701469
  C   1.34007898906670      0.05588290583255     -1.10461873056055
  C   1.93846531312619      2.99392284024067      1.07971553407682
  N   2.54640738580813      2.56644103026555     -1.04684772837616
  C   2.77286803391710      4.02154404566832      0.68381658066924
  H   1.45675836863148      2.78889020966361      2.02065916180061
  C   3.12106750812665      3.70864802117278     -0.63821864660642
  H   3.08640144507329      4.86539035203953      1.27624136037071
  H   3.75505243787115      4.25083833337236     -1.32282776172183
  C   -0.65810066603854     -0.49033915453866      0.76311268468777
  H   -0.16569203935151      1.40902375586161      1.63400760200921
  C   -0.39607592304429     -1.40050441349483     -0.25785711965088
  H   -1.43683378845271     -0.69352021420566      1.48917091189213
  C   0.59975301148253     -1.11848184038543     -1.19085022379665
  H   -0.96701209899523     -2.31872953227277     -0.32876913485772
  H   0.81069949298268     -1.82010170454990     -1.98976389577381
  H   2.12142177275758      0.28742583409638     -1.81615563548600
