19
Coordinates from ORCA-job opt
  C   1.03448777644893      0.97962374753193     -0.07941926296706
  N   1.78614379610360      2.17850385931120     -0.03074054385069
  C   1.67780142148185     -0.21988581376385     -0.37528878881272
  C   -0.34186052110625      1.02843782936064      0.12510343279610
  C   2.89251887220681      2.41402588970271      0.72865650526522
  N   1.34272619864644      3.27965040733140     -0.66344123546497
  C   3.20903031433790      3.74883706051586      0.55249881804730
  H   3.33488991986729      1.63176648153265      1.32481442883447
  C   2.22184110859584      4.23660786917129     -0.31614517025104
  H   4.03091540528442      4.28545944841232      0.99728082713404
  H   2.09970866595763      5.23100102469091     -0.71730302024264
  C   0.93472120748741     -1.39632580116616     -0.42240663179741
  H   2.74364002593266     -0.22145706525277     -0.57434664649268
  C   -0.44173709855509     -1.36370186302022     -0.20753062402296
  H   1.42875449404505     -2.33400159430620     -0.64920001709686
  C   -1.07673466212236     -0.15126013441958      0.05895789206797
  H   -1.01926323925897     -2.27952490623771     -0.25414941922432
  H   -2.14831520851346     -0.12308311680585      0.21937155301434
  H   -0.81316547683972      1.98252367741141      0.32688690306395
