19
Coordinates from ORCA-job opt
  C   1.10330639976280      0.93611886854341     -0.05512869973312
  N   1.85917349979197      2.12870393891521      0.03376749214677
  C   0.30714817823364      0.53377698901090      1.01635485416285
  C   1.16056723642568      0.18011717098368     -1.22476595981450
  C   1.60750187580470      3.21488233041381      0.81861488245603
  N   2.96693458987200      2.27692486326537     -0.71525119891240
  C   2.61699338656278      4.12378563202551      0.56379899140943
  H   0.73437344277220      3.26832197331546      1.44743466515380
  C   3.42980627980479      3.49533507584598     -0.39096065906693
  H   2.73375886353060      5.10183208881181      1.00099836525972
  H   4.33213932930474      3.85561697222935     -0.86067330879134
  C   -0.44998954320203     -0.62896674708875      0.90614032618579
  H   0.29971506734185      1.10439650685581      1.93710599290595
  C   -0.40268976970150     -1.39212536087907     -0.25812077805976
  H   -1.06684495038233     -0.94346788487762      1.74007418168499
  C   0.40875085817615     -0.98659248150697     -1.31629583026488
  H   -0.98905094457813     -2.29992570074921     -0.33752344596348
  H   0.45256568378787     -1.57661353513335     -2.22456495394730
  H   1.79194251669222      0.51507730001869     -2.03740291681162
