19
Coordinates from ORCA-job opt
  C   1.16306103618443      0.89613640695785     -0.04746191886284
  N   1.92909409258245      2.08655913575169      0.02967597155161
  C   0.89082741497245      0.18399195236715      1.11749919604238
  C   0.64319545626231      0.49723866492770     -1.27579229030548
  C   1.49875479459245      3.34657510460361     -0.25678024046626
  N   3.15366242687953      2.06565720506955      0.58608866573298
  C   2.52634790360218      4.20002972503713      0.10350689810595
  H   0.51845058643012      3.51717797773825     -0.67281529059608
  C   3.52387763590990      3.35895816993227      0.61704826707099
  H   2.54122992976666      5.27354778601334      0.01047922207488
  H   4.49707249054803      3.61640014055128      1.00597846020282
  C   0.10469055861906     -0.96156908627781      1.04129807570046
  H   1.30743422865202      0.52634829205416      2.05726488023932
  C   -0.42256939531237     -1.37287943680713     -0.18245799493376
  H   -0.10731318999839     -1.52653077435234      1.94166742755361
  C   -0.15466966239829     -0.64242914051620     -1.33846742649847
  H   -1.03872262576851     -2.26288348886921     -0.23504381837136
  H   -0.55816667364338     -0.96375935315130     -2.29169218769009
  H   0.87984299211934      1.06863171897001     -2.16639489655064
