19
Coordinates from ORCA-job opt
  C   1.10382344103498      0.92824361937553      0.00188540929911
  N   1.89270520322414      2.09850539189101      0.13790463057947
  C   0.48720844746442      0.38462493659937      1.12566034553306
  C   1.00342889607305      0.31593701568091     -1.24417520170845
  C   1.45298577991802      3.33542473388080      0.50034671293811
  N   3.17582718446662      2.09688887184059     -0.26622122898224
  C   2.53203017470542      4.18959611731886      0.35795623411889
  H   0.43239497389642      3.49217536938462      0.81197192548597
  C   3.56982211621065      3.37489785797282     -0.11676471455760
  H   2.55490721812142      5.24706134050055      0.56420967317173
  H   4.58808072769156      3.64051884195921     -0.35605194336740
  C   -0.28065858873957     -0.76885045750343      0.98820354425986
  H   0.61773512293500      0.86277270363161      2.09002103154093
  C   -0.40055245652325     -1.38462133303968     -0.25617168605190
  H   -0.76707534200033     -1.19705404840010      1.85696239120375
  C   0.24580190431044     -0.84475590839943     -1.36758540681061
  H   -0.99143136595904     -2.28731113457878     -0.35883053339173
  H   0.15923055153116     -1.32751364285157     -2.33413386266226
  H   1.51983601163889      0.75065972473711     -2.09158932059870
