19
Coordinates from ORCA-job opt
  C   1.00476988017379      0.99743834129151     -0.05542915810260
  N   1.73745638382291      2.20351714122027      0.03890539683258
  C   -0.37638228866469      1.02356498724529      0.12839802976105
  C   1.66803453055993     -0.19844564850145     -0.32595252130978
  C   3.02881698666777      2.35701743765721      0.44802194146134
  N   1.14940215574867      3.37268324335775     -0.27258422827236
  C   3.29786425788273      3.71167278061199      0.39171176388907
  H   3.62097766519905      1.51712792028147      0.77218662485051
  C   2.10406619169886      4.29363107818004     -0.05938995770158
  H   4.22233440783089      4.20033726937690      0.65227361043244
  H   1.88198222122919      5.33266006148227     -0.24841170977120
  C   -1.09396765699465     -0.16513062640009      0.04426050184163
  H   -0.86307395632109      1.96927695356560      0.32922249895297
  C   -0.44109699165503     -1.37043451295535     -0.20882134770549
  H   -2.16849349261517     -0.14859189859132      0.18595090553918
  C   0.93962320765983     -1.38267945291057     -0.39316759934355
  H   -1.00556257371561     -2.29349692328189     -0.26871189817298
  H   1.45340412839467     -2.31310657972200     -0.60571535939141
  H   2.73594594309794     -0.19984257190763     -0.50914649378983
