19
Coordinates from ORCA-job opt
  C   1.15365367073836      0.90097422776433     -0.05213429414055
  N   1.91865026993038      2.09485178770530      0.02473065497200
  C   0.82661908092058      0.22602539010518      1.12054239325737
  C   0.69822983172074      0.46012578997892     -1.29102844951912
  C   1.45607700067366      3.36478390787366     -0.13628341651287
  N   3.19765970076759      2.05081033913811      0.43869889032125
  C   2.51489240631081      4.20488230208785      0.16194289877667
  H   0.43716401200022      3.54931502952129     -0.43804788876473
  C   3.56519757075266      3.34397530255448      0.50929233379800
  H   2.51635215999084      5.28212573719527      0.13185059539300
  H   4.57430389250907      3.58580338250600      0.80568658275558
  C   0.04753034701607     -0.92446499566651      1.04409732623963
  H   1.19548687638878      0.60088937647956      2.06813522475759
  C   -0.41385470456777     -1.37867872236385     -0.19103012743979
  H   -0.20806469001488     -1.46111624169974      1.95042349172874
  C   -0.08987662470409     -0.68635116783217     -1.35614412018178
  H   -1.02362964617554     -2.27302845384800     -0.24516436550689
  H   -0.44465951021553     -1.04129446029383     -2.31678247122398
  H   0.97437035595804      1.00757046879416     -2.18518725871013
