19
Coordinates from ORCA-job opt
  C   1.00261341473788      0.99231537095129      0.01832433398966
  N   1.73613751034947      2.19511168712137      0.14135644185107
  C   1.62561041846648     -0.22699655827357      0.27886062930468
  C   -0.33938587913205      1.04693966819832     -0.35212329491828
  C   3.05354070294601      2.38971213146611     -0.14956512216019
  N   1.11892860569548      3.32285237627738      0.53719397516448
  C   3.31124975678201      3.72754894590111      0.08476664978246
  H   3.67090624998159      1.58836044019686     -0.52153320302583
  C   2.08347563737452      4.25812684945060      0.50720289722824
  H   4.25071776135495      4.23939813549834     -0.04455678218358
  H   1.84298021115363      5.26896768142768      0.79874299392575
  C   0.90037514831690     -1.40679037199765      0.13845606698206
  H   2.65722301985708     -0.24935132840397      0.61019839999284
  C   -0.44066367057632     -1.36649966323136     -0.23690932754833
  H   1.38170918547652     -2.35655667677298      0.34114630113842
  C   -1.05688540590723     -0.13867346845568     -0.47371774360227
  H   -1.00425486485178     -2.28654632191432     -0.33773530281487
  H   -2.10111721954732     -0.10160209578242     -0.76203277674928
  H   -0.79705958247783      2.01088219834290     -0.53447413635703
