19
Coordinates from ORCA-job opt
  C   1.16020083867846      0.89764974364219     -0.05121485124972
  N   1.92563599279457      2.08992330944391      0.02475814600342
  C   0.86129091352241      0.20457653217552      1.11851316792755
  C   0.66994015484918      0.47839730706963     -1.28461485876411
  C   1.47683479676793      3.35556370310567     -0.19992192285811
  N   3.17768782366081      2.05733211456639      0.51553138237828
  C   2.51930076202841      4.20269551039341      0.13270504153349
  H   0.47661283560467      3.53339965143708     -0.56211991782930
  C   3.54487551447651      3.35121841024427      0.56711425679298
  H   2.52620478306133      5.27855793539382      0.07107772332810
  H   4.53604712195652      3.60119712117960      0.91314369187492
  C   0.07767780588512     -0.94286937577283      1.04320481431101
  H   1.25533624431328      0.56245511283932      2.06238013789596
  C   -0.41901411434836     -1.37516921564932     -0.18609212772910
  H   -0.15526749794660     -1.49328642635166      1.94738748479370
  C   -0.12432761250115     -0.66388787950236     -1.34754616321092
  H   -1.03286699826324     -2.26679159719705     -0.23858967204861
  H   -0.50531142315301     -1.00144830674169     -2.30441126933692
  H   0.92524205861317      1.03768734972409     -2.17770306381262
