19
Coordinates from ORCA-job opt
  C   1.01070259150631      0.99743648529522     -0.10459392818886
  N   1.75337575771963      2.19846380265507     -0.02284612740602
  C   -0.35257398216827      1.01732426965069      0.18041600894494
  C   1.66027571969723     -0.19091804008740     -0.43178846454343
  C   2.97363682831609      2.36781826000783      0.55981558690681
  N   1.21871161500828      3.35323239210451     -0.45860715276062
  C   3.26063502620414      3.71795660876700      0.47712185285182
  H   3.50493536957539      1.53698079104734      0.99546288002496
  C   2.14525276824094      4.28074402744654     -0.16050375113533
  H   4.14543054866964      4.21647598977734      0.83756099759515
  H   1.96163901246711      5.31015927067372     -0.42737709482564
  C   -1.07245456873873     -0.17184656250592      0.12388080845353
  H   -0.82597868776467      1.95863367692186      0.43030933766900
  C   -0.43361878515649     -1.37003446857112     -0.19279580964150
  H   -2.13446123070571     -0.16330825304774      0.34053050548121
  C   0.93208851422007     -1.37687383443719     -0.46871916757342
  H   -0.99901977395662     -2.29378806911155     -0.22955979604091
  H   1.43142194739163     -2.30344459653785     -0.72737840900943
  H   2.71610132947402     -0.17781175004834     -0.67732827680225
