19
Coordinates from ORCA-job opt
  C   1.01885156671217      0.98789483540712     -0.06767854904366
  N   1.72428713735770      2.21428429096010      0.00737684900539
  C   -0.13911006971805      0.81764638579394      0.68702575085776
  C   1.46929295005428     -0.00573304810844     -0.93248797906436
  C   2.27706621658650      2.76562483953133      1.12364080158193
  N   2.04955764792768      2.87536090833121     -1.11815350948621
  C   2.97926207004693      3.87995719684611      0.70095530106813
  H   2.13289346000246      2.31769949203800      2.09408725212108
  C   2.80573822477640      3.90260941631883     -0.69046061585438
  H   3.53824396969483      4.56681869993727      1.31499964124881
  H   3.18282191918863      4.61146774572971     -1.41156662610843
  C   -0.83141564134584     -0.38776737568680      0.60706543049280
  H   -0.48908061267035      1.62605279424793      1.31923084294978
  C   -0.38424533203896     -1.39591872371823     -0.24477558778098
  H   -1.73171151121809     -0.52965413672285      1.19362788907379
  C   0.76055130619462     -1.20025556998652     -1.01649002721787
  H   -0.93015652275013     -2.32968050356908     -0.31224540307288
  H   1.10502007890840     -1.98082365223243     -1.68495298388970
  H   2.35823214229083      0.17161640488278     -1.52559547688101
