19
Coordinates from ORCA-job opt
  C   1.00788728739545      0.99192154929838     -0.01041660394660
  N   1.73906547906484      2.20116814389261      0.09650075983065
  C   -0.38620873673532      1.03761903277736      0.00074609301571
  C   1.67333299977999     -0.22751557169419     -0.13697365698026
  C   3.09029550479368      2.36095993538333      0.19836971973244
  N   1.08500859598156      3.37713481363796      0.07826426933655
  C   3.32331184014863      3.72128494844299      0.25428301847581
  H   3.76606417274326      1.52442500833786      0.24273986025071
  C   2.05001410055574      4.30403078405070      0.17632333075001
  H   4.27969436615850      4.20996463135581      0.34268145174878
  H   1.77516623215662      5.34754407334423      0.18342874214046
  C   -1.10878666078772     -0.14612881870164     -0.10607103129667
  H   -0.87965719950103      1.99536198070812      0.09476368432529
  C   -0.45474270951877     -1.37050113609848     -0.22410069065348
  H   -2.19200286588197     -0.10681894804035     -0.09589998881703
  C   0.93724200908004     -1.40419330070424     -0.23936843676137
  H   -1.02341002279421     -2.28915215720790     -0.30613294271235
  H   1.45966655747432     -2.34882566532855     -0.33715060247680
  H   2.75416104988638     -0.27108030345399     -0.16838597596185
