19
Coordinates from ORCA-job opt
  C   1.16172009523865      0.89681979474762     -0.04068647422367
  N   1.92804544155166      2.08558527327776      0.03982969101047
  C   0.91485288519846      0.16451178985313      1.11759041648701
  C   0.61765379610201      0.51651691398364     -1.26473796760432
  C   1.52047319364596      3.33853134576411     -0.30610793663375
  N   3.12624429227535      2.07571131885550      0.65117431711678
  C   2.53624906619982      4.19707376941418      0.07415496929238
  H   0.56019678515738      3.50268579625645     -0.76869240405161
  C   3.50352073652084      3.36699817283285      0.65898018776303
  H   2.56222965958832      5.26718027742938     -0.05037230924513
  H   4.45982651745083      3.63118966383224      1.08364150071619
  C   0.12875663861015     -0.98078179585841      1.03826704847374
  H   1.35049417723552      0.49226091066266      2.05375934170429
  C   -0.42407996750279     -1.37253594700895     -0.18057333461036
  H   -0.06358769115618     -1.56083160389661      1.93345317316256
  C   -0.18070973186954     -0.62255316804206     -1.32945189312245
  H   -1.04031139973615     -2.26234541773920     -0.23511199959604
  H   -0.60270935983574     -0.92880689292711     -2.27963293329691
  H   0.83723386532547      1.09998879856280     -2.15188039334221
