19
Coordinates from ORCA-job opt
  C   1.14273714297455      0.90645424887993     -0.04722413447673
  N   1.90786731258025      2.10115428580739      0.03426148075155
  C   0.78390934376790      0.24753155797824      1.12505091708211
  C   0.73035205377599      0.44287106236754     -1.29267936508154
  C   1.43659411072852      3.37390420125457     -0.06142505090401
  N   3.21288507054090      2.04648554080013      0.35475623339471
  C   2.51386698709924      4.20683825904259      0.18843516245913
  H   0.40047026633751      3.56542764052142     -0.29178303056201
  C   3.58487064415409      3.33793993069871      0.43805010466692
  H   2.51386348689735      5.28450135355617      0.18850365832632
  H   4.61173736255391      3.57241442758145      0.67294688858434
  C   0.01145455928961     -0.90725299359084      1.04320169211227
  H   1.12192735680884      0.63844642111102      2.07777309224547
  C   -0.40721045214138     -1.38382459311804     -0.19857773490271
  H   -0.26972123615808     -1.43119245312251      1.94937655525124
  C   -0.04876019195358     -0.70930798017063     -1.36415581568802
  H   -1.01087579881856     -2.28202399455031     -0.25756502249495
  H   -0.37114248040517     -1.08184991979092     -2.32953425921049
  H   1.03127446196809      0.97868400474410     -2.18581037155361
