19
Coordinates from ORCA-job opt
  C   1.02682014094211      0.98949225450985     -0.14450647840354
  N   1.78629580971094      2.18433209184424     -0.07080211098755
  C   -0.30239572192624      0.99999378383420      0.26958273600890
  C   1.64207050665443     -0.18549680117915     -0.56764108981805
  C   2.87249640327901      2.40607661891987      0.72032958194093
  N   1.35401730895137      3.29749287772840     -0.69016327851996
  C   3.19065314608797      3.74498589242884      0.57808788694324
  H   3.30410333960905      1.61021182709915      1.30641914004836
  C   2.22357184321915      4.24879362130946     -0.30345806477869
  H   4.00201605088116      4.27314003295467      1.05143785502832
  H   2.10847542645296      5.25111346101020     -0.68654987368328
  C   -1.03114200410678     -0.18479076009792      0.23294024009764
  H   -0.74759664753214      1.93156187436476      0.59807247419358
  C   -0.42769356192730     -1.36917695213063     -0.18876473727964
  H   -2.06853913225829     -0.18543119779817      0.54694537749897
  C   0.90783136110341     -1.36867148297237     -0.58632667121740
  H   -0.99855905280371     -2.29014063622403     -0.21011900557347
  H   1.37712364748969     -2.28672571314614     -0.92045497342283
  H   2.67655313617320     -0.15956379245526     -0.89142900807552
