19
Coordinates from ORCA-job opt
  C   1.10298000387710      0.92590684973472     -0.00177134109463
  N   1.87852363330955      2.11172219952521      0.11618060457130
  C   0.62070763488801      0.30827343013482      1.14797712920999
  C   0.86099198750750      0.39420736730813     -1.26477205004861
  C   1.40893538195113      3.38395314145601      0.21968356235337
  N   3.22067441971589      2.04856794452039      0.06232148708844
  C   2.52174564471583      4.20750126493224      0.24941222506109
  H   0.34954685221580      3.58217474689988      0.26103012741638
  C   3.61302505545882      3.33389862284383      0.14978142445044
  H   2.53107614098587      5.28201105941544      0.33112970279034
  H   4.66812872947919      3.56016666411130      0.13745729738043
  C   -0.13405315511994     -0.85563977361672      1.02680168397770
  H   0.84516946866446      0.73967740790092      2.11683514046271
  C   -0.39015564347204     -1.39457875151860     -0.23277736580941
  H   -0.51498498567079     -1.34516920396386      1.91557493060652
  C   0.10871600232829     -0.77168343621635     -1.37599632210509
  H   -0.97526607722027     -2.30237542190979     -0.32349607920743
  H   -0.08646287066079     -1.19472557816233     -2.35458168531597
  H   1.26680177704637      0.89331146660476     -2.13718947178757
