19
Coordinates from ORCA-job opt
  C   1.06908109459753      0.94993696416250      0.03443941104755
  N   1.82079248461239      2.14444760163038      0.15606109382377
  C   1.08373349264566      0.02831581514146      1.08110890003353
  C   0.33784474639967      0.69228803379548     -1.12504475992129
  C   1.79209848488861      3.24017889349151     -0.65620483767615
  N   2.71539143536503      2.26913002376911      1.15359512811845
  C   2.71988802029863      4.12976255175919     -0.15005093496503
  H   1.11398256342571      3.31810498250628     -1.48867311980593
  C   3.26221601404004      3.48054641060862      0.96863380435562
  H   2.95699600068111      5.10695071242603     -0.53758484201122
  H   4.02417377071622      3.82128838766446      1.65262074554208
  C   0.34933675963347     -1.14720812130453      0.96465199730642
  H   1.66540923282242      0.24767169314949      1.96623733116970
  C   -0.39644998345613     -1.40878600932079     -0.18277339117254
  H   0.36108616609930     -1.86121891843367      1.78015404122877
  C   -0.39769645063492     -0.48500061030488     -1.22480971325032
  H   -0.96770853269419     -2.32568510840073     -0.26655002755289
  H   -0.96464508520190     -0.68092847826331     -2.12758478752580
  H   0.35056878576136      1.38740217592338     -1.95462603874471
