19
Coordinates from ORCA-job opt
  C   1.03364445382669      0.98322218252323     -0.13760276656252
  N   1.79585459531520      2.17893196793027     -0.06152209421054
  C   -0.27461848506714      0.97916168470312      0.33790781701237
  C   1.62642065224608     -0.17431711496960     -0.63291690097469
  C   2.79897288635048      2.44514897821546      0.81910693057657
  N   1.44964275716235      3.24762284815513     -0.80125871932868
  C   3.15236745875780      3.76810979032030      0.61740670603544
  H   3.15825410543725      1.68603244971375      1.49583156930779
  C   2.29069596048829      4.21640314846641     -0.39328984081476
  H   3.92118896894418      4.31980207541172      1.13307174905080
  H   2.23113270860909      5.18988587520441     -0.85525258802464
  C   -1.00684674313112     -0.20334705387391      0.29357004557941
  H   -0.70216617639845      1.89855912303686      0.72056978424126
  C   -0.42597112630916     -1.37018700280950     -0.20220614888008
  H   -2.02833058748658     -0.21633535323940      0.65572001916080
  C   0.88893924976410     -1.35540216084415     -0.66325007194119
  H   -0.99893351023117     -2.28969576854828     -0.23110901463741
  H   1.33950711784098     -2.26098437684215     -1.05259722372627
  H   2.64634571388111     -0.13540729255366     -0.99857825186365
