19
Coordinates from ORCA-job opt
  C   1.01514138127086      0.98608495625712     -0.06414036754241
  N   1.74277901466838      2.20465608310673      0.02043654985535
  C   -0.23396293730561      0.89322524910068      0.54174132640524
  C   1.55782599991752     -0.08255515002834     -0.77119968480912
  C   2.55863774267435      2.59620755441958      1.03574707291746
  N   1.71852581554479      3.07762589137186     -1.00211043565662
  C   3.09337208285319      3.81577382692830      0.65603413844339
  H   2.68167894833007      1.98436176343307      1.91541209391463
  C   2.54273566988861      4.06706246060310     -0.60794853785083
  H   3.78073894806376      4.42573933913322      1.21888747245151
  H   2.69371362358513      4.91274246718865     -1.26111230810128
  C   -0.94437197161048     -0.30101397536628      0.45142927020443
  H   -0.63448193485007      1.75230223051757      1.06781050066732
  C   -0.40897491191482     -1.38157436697359     -0.24737302439544
  H   -1.91822904969596     -0.38477608158715      0.91967242462989
  C   0.83884984413115     -1.27120473852612     -0.85939864203161
  H   -0.96583798617906     -2.30867706491740     -0.31851981932848
  H   1.25174806363659     -2.11034064218037     -1.40717063103207
  H   2.52621065699159      0.03156119751936     -1.24459839874138
