19
Coordinates from ORCA-job opt
  C   1.15707598015747      0.89934154715581     -0.03215110863865
  N   1.92333343600285      2.08673704185655      0.05295939264112
  C   0.93508833893601      0.14636783039974      1.11805778642303
  C   0.59244482954493      0.53586538208695     -1.25231007856144
  C   1.54221238576771      3.33111346757852     -0.35021003298180
  N   3.09590266825770      2.08739642828777      0.71209596089236
  C   2.54852638620077      4.19360482701078      0.04527903663049
  H   0.60228503840289      3.48923023466380     -0.85460881839928
  C   3.48353644775509      3.37524370016521      0.69569208587444
  H   2.58833825037352      5.25920364639246     -0.11034851982030
  H   4.42369031752897      3.64566736997004      1.15135944077348
  C   0.15107289056072     -0.99997716812425      1.03432766883574
  H   1.38725708227710      0.46035654914125      2.05092664073537
  C   -0.42400440530005     -1.37369754802567     -0.17980897844391
  H   -0.02214545304703     -1.59524863264685      1.92341671478401
  C   -0.20397181211059     -0.60421913561055     -1.32044835592243
  H   -1.03856850326194     -2.26444555912312     -0.23737643534911
  H   -0.64177644655003     -0.89655357562879     -2.26786850617728
  H   0.79580356850389      1.13121459445034     -2.13538389329586
