19
Coordinates from ORCA-job opt
  C   1.12784114680714      0.91367658687443     -0.03456074433839
  N   1.89457946974724      2.10748463785051      0.05672158352940
  C   0.73130192460254      0.26870051993206      1.13305305378169
  C   0.76920429731274      0.42679547250857     -1.28767104358324
  C   1.42020121925975      3.38184366760224      0.02731024822899
  N   3.22219445109695      2.04439253966036      0.26081852803299
  C   2.51597264725936      4.20834753877280      0.21067581277016
  H   0.36976814684174      3.57914946694448     -0.11743141767288
  C   3.60196327800652      3.33341789854923      0.34912499345703
  H   2.51783923927062      5.28563502499236      0.23875513528051
  H   4.64481382650884      3.56143009277942      0.50740083872428
  C   -0.03310332931866     -0.89088891731755      1.04017674966435
  H   1.03234044886438      0.67478445622057      2.09190245752924
  C   -0.39964003722468     -1.38948151128494     -0.20919375860203
  H   -0.34487852544575     -1.40346555601244      1.94281330409111
  C   0.00114127746564     -0.73178598835160     -1.37080586317308
  H   -0.99566395885160     -2.29213360366611     -0.27735333507558
  H   -0.28103554443016     -1.12202493193814     -2.34176135953381
  H   1.10126402222738      0.95132160588371     -2.17637518311074
