19
Coordinates from ORCA-job opt
  C   1.11703801509708      0.92191321150423      0.00718685133286
  N   1.87845408220733      2.10875077282831      0.11432527769677
  C   0.99575921214462      0.08751726578254      1.11643457784268
  C   0.48804814520808      0.61015349260194     -1.19686701723487
  C   1.63288748128943      3.30320566723603     -0.49479649954761
  N   2.95006934103502      2.14978836207755      0.92640038324065
  C   2.61570929430368      4.17242734108968     -0.05927789019268
  H   0.78197116417045      3.43927118830515     -1.14212563320722
  C   3.40311201292679      3.41015612595806      0.81613478432093
  H   2.73186185920140      5.20870890473498     -0.33120069563559
  H   4.28086097488770      3.70245964953817      1.37177994865453
  C   0.23394795690784     -1.07172431995289      1.01159048290577
  H   1.50163303977707      0.35545270753537      2.03525914672408
  C   -0.41278747258847     -1.38814684081945     -0.18216038617084
  H   0.13797248712174     -1.72508511099511      1.87114107824978
  C   -0.28388214555632     -0.54495592889550     -1.28363819809888
  H   -1.00874284139437     -2.29021396092885     -0.25559675926701
  H   -0.77168805054265     -0.79181143278621     -2.21954590621542
  H   0.62387444380357      1.24933290518600     -2.06144154539792
