21
Coordinates from ORCA-job opt
  C   0.88661286517926      1.06931629051028     -0.05675355710270
  C   1.62836356105005      2.34448266726737     -0.05838400467681
  C   -0.26731332913762      0.93797449429281      0.72252653963888
  C   1.35046181138570     -0.03188101876113     -0.78447790455195
  C   3.02369227735417      2.36070702665825      0.04794659806160
  N   0.89667899098971      3.47300585352260     -0.10148200439049
  C   3.68843793699252      3.58061677115937      0.07014314494157
  H   3.56889610495088      1.42739367329774      0.12775454364558
  C   2.93694547099506      4.74876839852529      0.00045083845275
  H   4.76873291669127      3.61815535000998      0.15406347240893
  C   1.55103461515642      4.63975847969118     -0.07663995385397
  H   3.40780100275440      5.72427343059437      0.01521908274563
  H   0.93048298944858      5.53006431612373     -0.11974379893193
  C   -0.94767129651453     -0.27472908310368      0.76770404108525
  H   -0.62216848257569      1.79650471258478      1.28142178384670
  C   -0.48463601628728     -1.36792157966015      0.03614534711079
  H   -1.83872933218150     -0.36961947709570      1.37833901622191
  C   0.66312585205276     -1.24211109296534     -0.74405638026874
  H   -1.01807957471018     -2.31108506087037      0.07044726595118
  H   1.02117906381993     -2.08537265037738     -1.32412992618193
  H   2.23405057258608      0.07039849859601     -1.40649314415224
