21
Coordinates from ORCA-job opt
  C   0.93006028299808      1.04157753555584      0.01758599842868
  C   1.64586414128576      2.33637921369386      0.02598674773393
  C   0.20714683553804      0.63781788916733     -1.10814275561092
  C   0.91547686264459      0.24486748899265      1.16543366118836
  C   2.78319622672013      2.52109238885346     -0.76589183694473
  N   1.19414494731168      3.27506525509824      0.87617021679259
  C   3.45894172526065      3.73464445924102     -0.70947274853744
  H   3.12146722375224      1.71774700130357     -1.41062636489716
  C   2.98148831162962      4.71892262485606      0.14917389806845
  H   4.34322254402396      3.90372955937944     -1.31354390959848
  C   1.85518594367441      4.43911218107711      0.91822542219959
  H   3.47204244303029      5.68130576918954      0.23150485315427
  H   1.46128503147877      5.18014986508563      1.60754344577514
  C   -0.49572578730575     -0.56495703381320     -1.09751178332873
  H   0.19477265410186      1.27209212563041     -1.98897601273730
  C   -0.48799226169456     -1.36726401381117      0.04164406731466
  H   -1.05738613855174     -0.87003814456386     -1.97340499385527
  C   0.21816075317057     -0.95984371438119      1.17275378010045
  H   -1.03456931660856     -2.30342250196280      0.05043410106822
  H   0.21946677256566     -1.57823402712088      2.06345354862980
  H   1.45164980497431      0.57795507852892      2.04765966505590
