21
Coordinates from ORCA-job opt
  C   0.98789419974377      1.00685198618583     -0.03068796759953
  C   1.77524125600409      2.26052646164270     -0.05307803372371
  C   1.31898494720117     -0.02215464395854      0.85469952567723
  C   -0.05755211995926      0.82183619234792     -0.93888191920179
  C   1.62425085321359      3.20798714119519      0.96362786288723
  N   2.57503552112525      2.45770155205383     -1.11567915237237
  C   2.35077402029587      4.39166048202835      0.90060216430500
  H   0.94525767868072      3.00688853121224      1.78456305873726
  C   3.19608233393572      4.59237858433902     -0.18520407242093
  H   2.25262508633775      5.14272023572423      1.67631980228680
  C   3.26922205234301      3.60240871231036     -1.16131712327521
  H   3.78327412215742      5.49758112385505     -0.28245637660725
  H   3.91177936628785      3.72973259460976     -2.02752592719466
  C   0.59534352326993     -1.21266190243405      0.85024776563582
  H   2.14746343453623      0.11310029097175      1.54278667523287
  C   -0.45894085212089     -1.38493666658051     -0.04435105111554
  H   0.86001470625750     -2.00803533013482      1.53805050200120
  C   -0.78354280519904     -0.36614774212182     -0.93892323990647
  H   -1.02239366296945     -2.31106770922187     -0.04814046444342
  H   -1.59878735913060     -0.49987129697229     -1.64124765949784
  H   -0.29412330201064      1.61220040294766     -1.64340536940469
