21
Coordinates from ORCA-job opt
  C   0.97394150278348      1.01623151578118      0.05699277608946
  C   1.73046611374740      2.28379117140440      0.07657493075241
  C   1.01377707816745      0.16364659219857     -1.05271599526827
  C   0.20495813440281      0.65025715450691      1.16776779249613
  C   1.98981188754164      2.99527558256814     -1.10099646346220
  N   2.13592846379206      2.72648018261509      1.28129004456645
  C   2.71043149432729      4.18105830805459     -1.03556433041869
  H   1.61004201833311      2.63469951498135     -2.04923563613265
  C   3.14388187469146      4.63053003418888      0.20695747459045
  H   2.91874095313158      4.74806375198438     -1.93589265379861
  C   2.82401953376774      3.87178021486647      1.32958219590380
  H   3.70888960767998      5.54897618056407      0.31015059618373
  H   3.13547718157413      4.19417148211641      2.31889932357469
  C   0.28973202758902     -1.02528570714783     -1.05570441655646
  H   1.63747062743725      0.41198633496341     -1.90475348374523
  C   -0.48493729448259     -1.37643789955937      0.04788856287362
  H   0.33780140728521     -1.68207912153622     -1.91716164428521
  C   -0.52190709053431     -0.53549621709826      1.15952014121021
  H   -1.04980506131492     -2.30175379126105      0.04459111882401
  H   -1.12045672533290     -0.80474018841520      2.02275371100304
  H   0.18963426541309      1.30754690422405      2.02905695559933
