21
Coordinates from ORCA-job opt
  C   1.01517739324580      0.99128080669627     -0.09621195607631
  C   1.77441563335808      2.26332781353773     -0.10940379535414
  C   1.50163018133162     -0.10776623227484      0.61577633534496
  C   -0.21831804000081      0.89773529023837     -0.74570263012402
  C   1.39369892215441      3.31532866496395      0.72850444881266
  N   2.85041577989396      2.32771979500554     -0.91264487623708
  C   2.13725462382222      4.49013948063509      0.72092747884462
  H   0.52720581165775      3.20099537916579      1.36982981351379
  C   3.24258388516808      4.56959406277406     -0.11933900078337
  H   1.86340469828496      5.32131138513687      1.36097069479367
  C   3.55569816789992      3.46667449549278     -0.90919214792721
  H   3.85540716044228      5.46182453660283     -0.16234489431169
  H   4.41560082433820      3.49074704216251     -1.57205648842359
  C   0.77052663943399     -1.29210534143784      0.66259608969842
  H   2.45828656833718     -0.03178972985744      1.12197073395413
  C   -0.45460119904706     -1.38465097309932      0.00410004593071
  H   1.15537216953779     -2.14161467544660      1.21570181269901
  C   -0.94723240031474     -0.28883309721891     -0.70178670361734
  H   -1.02229088041303     -2.30744457669236      0.04029712541339
  H   -1.89875446106187     -0.35736400479033     -1.21713560782929
  H   -0.59758147806874      1.75358887840585     -1.29485647832130
