21
Coordinates from ORCA-job opt
  C   0.93067505581911      1.04196664853476     -0.04814758534265
  C   1.67773317414241      2.31515424879370     -0.06581770448451
  C   0.51161386659652      0.46234867521650      1.15533461980151
  C   0.62654148969878      0.39948823846037     -1.25389211984042
  C   2.51669656376157      2.68190317656960      0.99332327198636
  N   1.52669413890843      3.08882814470611     -1.15683844755971
  C   3.19618046638842      3.89215261207678      0.93628458239194
  H   2.65150008865719      2.01527839885333      1.83643444613723
  C   3.02773111576647      4.69961139677994     -0.18326907882498
  H   3.85290949055596      4.19245656816921      1.74498929145387
  C   2.19078009722714      4.24840611222179     -1.20023931594639
  H   3.53568073337700      5.65199397071245     -0.27481489936337
  H   2.04098678194016      4.84512859292926     -2.09532273389904
  C   -0.18734687798029     -0.74150513562956      1.15321915329442
  H   0.70263543316131      0.96803664650840      2.09577260546573
  C   -0.47428011502084     -1.38277259128761     -0.05001923284471
  H   -0.51578047239748     -1.17435454653580      2.09160582096291
  C   -0.06694843470427     -0.80611401452394     -1.25244417457652
  H   -1.01738936709700     -2.32103001862332     -0.05115075119493
  H   -0.28997276649206     -1.29874590131786     -2.19239098527262
  H   0.94126053769145      0.86047077738587     -2.18261776234412
