21
Coordinates from ORCA-job opt
  C   0.92171024296076      1.04571112250372      0.01624528371691
  C   1.65838878090803      2.32745264358964      0.02080804077031
  C   -0.35128532724771      0.97745503854308      0.59556719369433
  C   1.45589946731270     -0.10486400717954     -0.57732815883616
  C   3.04687555896404      2.38026060444244     -0.15347644041261
  N   0.92460173577798      3.44177677557819      0.19909065756367
  C   3.68739277946558      3.61282089961755     -0.16110406387136
  H   3.62263558561744      1.46921616923872     -0.25573049240765
  C   2.92694576833824      4.76372965249197      0.01331374242980
  H   4.76213566680189      3.67095875601019     -0.29155605803846
  C   1.55421913129071      4.62054053343500      0.19597292147789
  H   3.38072031661143      5.74725458978363      0.01436889001010
  H   0.92446841618473      5.49306894356520      0.34349894619693
  C   -1.06133051452253     -0.21846575294411      0.59916505263160
  H   -0.76750632622562      1.87300498692622      1.04039944042934
  C   -0.51801192864937     -1.36291472943067      0.01710356839269
  H   -2.04289882155691     -0.25776652248868      1.05833533813326
  C   0.74130365873316     -1.29949973744289     -0.57528993947516
  H   -1.07395342136612     -2.29359586005804      0.01855685629315
  H   1.16582864287322     -2.17925132294314     -1.04593987645552
  H   2.41976158772833     -0.06819478323846     -1.07199890224305
