21
Coordinates from ORCA-job opt
  C   0.99183649887512      1.00175837667312      0.00000001966506
  C   1.76489107826521      2.26644619413532      0.00000001961681
  C   1.67453861429710     -0.22197189531295      0.00000001893171
  C   -0.40937646231820      0.98475704836202      0.00000001179421
  C   1.14666152276682      3.52341176654780      0.00000001655297
  N   3.10592644851771      2.14674264448483      0.00000001485943
  C   1.92801730263766      4.67185165287173     -0.00000000603181
  H   0.06886200250474      3.61367242301231      0.00000002138012
  C   3.31207582909202      4.54314997468252     -0.00000001653438
  H   1.46070018186266      5.65012334280829     -0.00000001641556
  C   3.84670647409643      3.25804632100974     -0.00000000055510
  H   3.96225499557560      5.40940872284669     -0.00000003462996
  H   4.92254997841834      3.10882404045733     -0.00000000576820
  C   0.97541689803156     -1.42422225809321     -0.00000000275488
  H   2.75701495845764     -0.21009576094564      0.00000002562353
  C   -0.41828299037096     -1.43114344397395     -0.00000001656242
  H   1.52220729071149     -2.36065479942756     -0.00000001146809
  C   -1.10625353738229     -0.22009033467582     -0.00000000427396
  H   -0.96215412080633     -2.36890409545905     -0.00000003491506
  H   -2.19049613350202     -0.21054532834094     -0.00000001336897
  H   -0.97519782973031      1.90813840833739      0.00000001485454
