21
Coordinates from ORCA-job opt
  C   1.01489741458205      0.99318035544935     -0.08302020063519
  C   1.77779498744305      2.25579474688308     -0.08894951782458
  C   1.63329816108428     -0.19005905983836      0.33363200924538
  C   -0.33790761335618      0.97018546295294     -0.43906237022352
  C   1.21640777115542      3.43334505046467      0.41773576934504
  N   3.04402336177590      2.19854080539550     -0.54080843425485
  C   1.97272129059528      4.59890842042218      0.42122747856098
  H   0.20821103905741      3.42199011006554      0.81535501037120
  C   3.27349355020653      4.54902323278711     -0.06834160926002
  H   1.55981745185667      5.52266916633095      0.81066966667167
  C   3.76036763591794      3.32850276195337     -0.52862145433844
  H   3.90379406149037      5.42989594284046     -0.08617296313357
  H   4.77546458625957      3.24804099465631     -0.90636573479634
  C   0.90968775327238     -1.37709338475002      0.38764043027403
  H   2.68255936599715     -0.16489463255203      0.60525184754569
  C   -0.43707205881720     -1.39615243990574      0.02635990966979
  H   1.39537928228641     -2.28910406305352      0.71658403464142
  C   -1.05777455052971     -0.22073724241172     -0.39200353660918
  H   -0.99821982755184     -2.32287373026559      0.06631984869504
  H   -2.10164154458172     -0.23193713215902     -0.68525007315322
  H   -0.81740211814376      1.88147463473452     -0.78218111079133
