21
Coordinates from ORCA-job opt
  C   0.97299308966949      1.01762695838627     -0.05432224966093
  C   1.74385116083569      2.27525141047049     -0.07641535822265
  C   1.08214668739504      0.12699560827950      1.01949888921873
  C   0.14673543046582      0.68817322839627     -1.13394746658326
  C   1.91078930806216      3.03665693999397      1.08613513760623
  N   2.22891131919379      2.66882869415998     -1.26831070325655
  C   2.63286462640373      4.22193847712259      1.02420257171156
  H   1.46299582976487      2.70714474925316      2.01640658647730
  C   3.15534218786522      4.61931323881962     -0.20189324451580
  H   2.77290530434158      4.82880078470739      1.91166343856624
  C   2.91909370394636      3.81388730939502     -1.31274694984017
  H   3.72499635615102      5.53520322471172     -0.30258129495088
  H   3.30064365940829      4.09745620981434     -2.28928015415672
  C   0.35833643629435     -1.06234826411977      1.02431796693425
  H   1.75423072533037      0.35454704300570      1.84064543718431
  C   -0.47940634244665     -1.37511668247954     -0.04433919681566
  H   0.45716321234853     -1.75004196575666      1.85683472384613
  C   -0.58097074727017     -0.49732134521509     -1.12318978855772
  H   -1.04408258514828     -2.30054861989546     -0.04013779142235
  H   -1.22751620774058     -0.73927240532779     -1.95943992028996
  H   0.08587584512936      1.37152540627825     -1.97309863327210
