21
Coordinates from ORCA-job opt
  C   0.97413429444676      1.01677616450776     -0.04004515265239
  C   1.76206994462873      2.26486126851577     -0.06454694282065
  C   1.18026465696501      0.06535878666297      0.96389319117594
  C   0.06248730571612      0.74659214592022     -1.06481241562848
  C   1.79430502975123      3.10636479379553      1.05264195747104
  N   2.36904846831739      2.57855220436569     -1.22320168836198
  C   2.51662122546289      4.29181202924209      0.98830680098583
  H   1.25176057500093      2.82806019959786      1.94907129537940
  C   3.17043525479781      4.60641359355593     -0.19825615345597
  H   2.55671041547836      4.96110090274717      1.84031100980918
  C   3.06044773264205      3.72391882023692     -1.26952352994185
  H   3.74566365014669      5.51870507244899     -0.30029084130404
  H   3.54649432313475      3.94350119946727     -2.21559625171672
  C   0.45749709575173     -1.12517468741183      0.96318461180980
  H   1.91710502537825      0.25690763091893      1.73777711260545
  C   -0.46989834448478     -1.37758162953426     -0.04571022508163
  H   0.62735693768321     -1.86052293924531      1.74173883985884
  C   -0.66456271419094     -0.43978644775438     -1.05936589034552
  H   -1.03340371037168     -2.30372595139383     -0.04647776714524
  H   -1.37971506320521     -0.63706466244717     -1.85021641732797
  H   -0.06692210304933      1.47363150580368     -1.85887954331306
