21
Coordinates from ORCA-job opt
  C   0.97346132241203      1.01701488960764      0.05650913310125
  C   1.73715421724299      2.27944849721159      0.07737568353055
  C   1.04855716096884      0.14561482253271     -1.03624328086684
  C   0.17532126528288      0.66924106705095      1.15193430579343
  C   1.95005075078087      3.01546902960702     -1.09420435564983
  N   2.18255667101594      2.69790866819703      1.27645121329555
  C   2.67169629088143      4.20084351796786     -1.03108412093965
  H   1.53546610753282      2.67030250629760     -2.03387026783807
  C   3.15001579476768      4.62454136917154      0.20410808929452
  H   2.84567425357518      4.78756357316886     -1.92605515692113
  C   2.87192961807433      3.84297355775399      1.32225846410535
  H   3.71757823354745      5.54161718029711      0.30563780901411
  H   3.21865787735545      4.14628180204777      2.30584006618045
  C   0.32443082815963     -1.04339300247609     -1.04076800657822
  H   1.69739693662130      0.38358693968275     -1.87267914398416
  C   -0.48248208962512     -1.37535690217814      0.04561226722514
  H   0.39839957046466     -1.71562612672170     -1.88836327337093
  C   -0.55222205095430     -0.51621407235018      1.14177258987772
  H   -1.04742161784400     -2.30062785550932      0.04137985234636
  H   -1.17533082478843     -0.77189427188087      1.99163383679255
  H   0.13701068452836      1.33940381052186      2.00275229559186
