21
Coordinates from ORCA-job opt
  C   0.87058519752791      1.07845752895755     -0.09054068684224
  C   1.62243448797254      2.35104911665198     -0.09821432778531
  C   -0.16547953924664      0.88810717970865      0.82802094908831
  C   1.24424729919863      0.02644077935055     -0.93173211554691
  C   2.98149159393811      2.36743585117294      0.23112852651154
  N   0.92367361770411      3.47324887255444     -0.34547424300873
  C   3.65595011589383      3.58234312476585      0.26469021505848
  H   3.48794278381640      1.43627079812166      0.45874913912378
  C   2.94456984245734      4.74362079873408     -0.01743767024191
  H   4.70954284765928      3.62231085943693      0.51728648513521
  C   1.58770710081597      4.63548297150907     -0.30989461801488
  H   3.42330560461328      5.71531723161419     -0.00308338176686
  H   0.99809654142041      5.52230838470216     -0.52292124121880
  C   -0.83450421850193     -0.33102617473412      0.88625544529849
  H   -0.44658118389898      1.70553678237541      1.48335614684928
  C   -0.46949166889832     -1.37224147222524      0.03368577286409
  H   -1.63727467339421     -0.47175561946639      1.60146823684144
  C   0.56877191711374     -1.19061485682924     -0.87773637463096
  H   -0.99308949470273     -2.32041496398201      0.07879023463294
  H   0.85335472580035     -1.99641217733643     -1.54515562350697
  H   2.05264710271091      0.17323698491796     -1.64124086883998
