21
Coordinates from ORCA-job opt
  C   0.87161952294895      1.07749313426569     -0.08789854441893
  C   1.62438078807318      2.35082000523153     -0.09694326515714
  C   -0.13304497332295      0.86864059426720      0.86069203940974
  C   1.21391365545663      0.04407412379182     -0.96440274940739
  C   2.96842485218369      2.37479072987897      0.28788452788339
  N   0.93932696547754      3.46557024230941     -0.40741957233826
  C   3.64355844441513      3.58962352841201      0.31591163777859
  H   3.46325677823304      1.44928867281649      0.55987468781256
  C   2.94714154588233      4.74296626303743     -0.02879270016118
  H   4.68598850618268      3.63560245236103      0.61036924787939
  C   1.60404054602941      4.62786652515256     -0.37668730616107
  H   3.42686589724310      5.71427538096289     -0.02161656030068
  H   1.02622182607561      5.50874219144120     -0.64054100885761
  C   -0.80324997184191     -0.35031629693878      0.91446621804477
  H   -0.39054445885884      1.67090774102655      1.54404240306092
  C   -0.46979327887919     -1.37281973861519      0.02724034582307
  H   -1.58234733888738     -0.50502391932213      1.65260947248979
  C   0.53787244968010     -1.17298513911490     -0.91418688624450
  H   -0.99394572849061     -2.32083560124658      0.06907144101754
  H   0.79857155204494     -1.96468974577925     -1.60772447709778
  H   1.99964042035455      0.20470785606205     -1.69594795105521
