21
Coordinates from ORCA-job opt
  C   0.87512222926476      1.07620528303243      0.08099011667022
  C   1.62255121302830      2.34917151140937      0.08562100003466
  C   -0.22140158193335      0.91736583281216     -0.77168289539573
  C   1.29967169669467     -0.00377576788428      0.86133005941086
  C   3.00450124554424      2.36020023225261     -0.13176736500552
  N   0.90375330540936      3.47807265961738      0.22212554480108
  C   3.67580819714814      3.57653947752063     -0.16507040700106
  H   3.53146452760421      1.42458520892135     -0.28044205357603
  C   2.94094450070400      4.74518586999718      0.00398640682307
  H   4.74632092849616      3.61161806212368     -0.33309390861015
  C   1.56462342089218      4.64150772254799      0.18703101919019
  H   3.41679649302463      5.71819532849742     -0.01523927836584
  H   0.95687043007419      5.53329666092020      0.30904834685520
  C   -0.89335201291177     -0.29981341935927     -0.82852449524283
  H   -0.54276761420848      1.75818930182236     -1.37652320402340
  C   -0.47452701853770     -1.37013447947970     -0.03881949985193
  H   -1.74145308715950     -0.41653973021250     -1.49403349058162
  C   0.62063995177264     -1.21858224689904      0.80941665908558
  H   -1.00105705376861     -2.31676845491100     -0.08248193803791
  H   0.94546578523520     -2.04575093408502      1.43073069816766
  H   2.14792644362671      0.11993288135605      1.52739868465349
