21
Coordinates from ORCA-job opt
  C   0.89381954688286      1.06476944970442     -0.04145331660169
  C   1.63316280734012      2.34137692853842     -0.04164688558449
  C   -0.28684967105450      0.94632782495828      0.69947955579307
  C   1.37371397224532     -0.04579508084618     -0.74469306160950
  C   3.03175629787342      2.36280966918237      0.00873845906266
  N   0.89740839398387      3.46824169869976     -0.04110656051465
  C   3.69225945512708      3.58500395066541      0.02346660695887
  H   3.58511098542398      1.43221960637934      0.05501774495183
  C   2.93489803035203      4.75119070349006      0.00133319137457
  H   4.77491080297438      3.62544981418372      0.06493704964185
  C   1.54747893706368      4.63716042309124     -0.02317255619343
  H   3.40257316000281      5.72826023312774      0.01223324086846
  H   0.92225464813858      5.52523785140707     -0.02891995425882
  C   -0.97287537029284     -0.26329852275474      0.73641974279818
  H   -0.65581947193588      1.81261995434892      1.23646697206503
  C   -0.49114751709783     -1.36667840185611      0.03279833878102
  H   -1.88399736210500     -0.34750768557489      1.31835722477807
  C   0.68101581964529     -1.25305555783888     -0.71212569627151
  H   -1.02902494639052     -2.30754055786637      0.06050555005496
  H   1.05345539711235     -2.10335639006736     -1.27253895431435
  H   2.27379808471080      0.04526408902777     -1.34409769178016
