21
Coordinates from ORCA-job opt
  C   1.00400627581629      0.99761491006559     -0.01344246708105
  C   1.77536112455992      2.25744418765497     -0.01689911632765
  C   1.66162366302166     -0.21657673648780      0.21677644883687
  C   -0.37602166703801      0.98666732106890     -0.25018353911872
  C   1.17152439347208      3.48693667824326      0.27348579434313
  N   3.08672058707425      2.15999241797956     -0.30412784835885
  C   1.93696811864920      4.64576900020150      0.24408430841519
  H   0.12381449771559      3.53147726305614      0.54355187533538
  C   3.28900460896004      4.54654696318494     -0.06539463798041
  H   1.48717229928258      5.60613881009561      0.46960979082345
  C   3.81248480272797      3.28233744221085     -0.32278097976292
  H   3.92679815231772      5.42131131680160     -0.10110698177168
  H   4.86544224828773      3.16035560503954     -0.55949712467982
  C   0.94983390978256     -1.41147644237057      0.22837780991768
  H   2.73170302114314     -0.20406591487489      0.38517235221002
  C   -0.42596342824309     -1.41433283419846      0.00190450895059
  H   1.47013357084006     -2.34421638090939      0.41580139466688
  C   -1.08496375988309     -0.21139370031910     -0.24261492449790
  H   -0.97852093331515     -2.34701258747303      0.00846451586150
  H   -2.15162318862442     -0.20546685330897     -0.43729329768373
  H   -0.89760029654703      1.91064953433975     -0.47388888209793
