21
Coordinates from ORCA-job opt
  C   0.93105516883455      1.04043668312335     -0.04466918268630
  C   1.69180464002612      2.30789047554731     -0.06514781162811
  C   0.58418872334563      0.41058905471447      1.15726225075845
  C   0.55867650972387      0.43893098136209     -1.25334859150494
  C   2.44993702940014      2.73158310821481      1.03337878660448
  N   1.61589889238392      3.03567818212479     -1.19521229641064
  C   3.13095409874450      3.94042716979134      0.96811944326095
  H   2.52815085691777      2.11192388787618      1.91767212632944
  C   3.04410609865758      4.69507778727577     -0.19639597791464
  H   3.72504744123434      4.28104875422249      1.80864979805186
  C   2.28065413575442      4.19372297403456     -1.24693870867499
  H   3.55667045976145      5.64420790859178     -0.29533525172121
  H   2.19234894996735      4.74780127733410     -2.17697287840554
  C   -0.11788918591437     -0.79120320961341      1.15002615410352
  H   0.82894521460167      0.87247507666207      2.10698076762527
  C   -0.47849125541205     -1.38638495997620     -0.05686378288997
  H   -0.38799941640912     -1.26032899025089      2.08958822618108
  C   -0.13954462279117     -0.76376083324400     -1.25726246316900
  H   -1.02412184744332     -2.32315509162105     -0.06156159844682
  H   -0.41719487911242     -1.21958899912702     -2.20125085271228
  H   0.82470298772913      0.93132776295743     -2.18071815675059
