21
Coordinates from ORCA-job opt
  C   0.88091630025973      1.07099546757094     -0.06876616740122
  C   1.63060449466408      2.34871252188077     -0.07988622989636
  C   -0.05843177631920      0.81835222437059      0.93385433627578
  C   1.14735177356905      0.08704322383841     -1.02425272220839
  C   2.93723483557033      2.39885905507009      0.41400028582741
  N   0.98285381255756      3.43657845386112     -0.53166392709732
  C   3.61255152466547      3.61419220034649      0.42036631331298
  H   3.40405402893462      1.49291004343866      0.78348205433754
  C   2.95405926696804      4.74090905957730     -0.06025907550707
  H   4.62677137820399      3.68054962601646      0.79779154287262
  C   1.64748228113328      4.59966892091402     -0.51988669708840
  H   3.43511742277976      5.71137250251701     -0.07639043407033
  H   1.10037637508234      5.45915848841794     -0.89585725293823
  C   -0.73582722852545     -0.39788714117150      0.96948027629232
  H   -0.26142446117041      1.58272528649459      1.67663421259497
  C   -0.47482181292652     -1.37265394757263      0.00780385409156
  H   -1.46493934824903     -0.58612499583986      1.74964692677426
  C   0.46625412572010     -1.12792549666264     -0.99032312878279
  H   -1.00357132162142     -2.31857390374114      0.03588647154483
  H   0.67069079037694     -1.88265904600544     -1.74149414056116
  H   1.88059753832675      0.28249645667881     -1.80016649837302
