21
Coordinates from ORCA-job opt
  C   0.91765967174600      1.04838926267629     -0.02315285691058
  C   1.64295815650861      2.34020630539188     -0.03218504528522
  C   0.11940028489553      0.69402789444320      1.06727016591939
  C   0.99474219226102      0.19326959747721     -1.12502374198170
  C   2.84488780355475      2.47821622120414      0.66787479397954
  N   1.11553210251340      3.33081331980571     -0.77202788302346
  C   3.51913513902820      3.69339163827099      0.62338605205794
  H   3.23255939161948      1.63896275019979      1.23404717689972
  C   2.97127362175995      4.72766337511474     -0.12773808278864
  H   4.45310037096280      3.82711819199731      1.15751795951283
  C   1.77655920272989      4.49563571083478     -0.80393296078655
  H   3.45677351173181      5.69363224612324     -0.19608409055385
  H   1.32356324619899      5.27830103607742     -1.40527669372785
  C   -0.57949708127274     -0.51126720322818      1.06375450134139
  H   0.04484799105010      1.36777144526099      1.91483954644037
  C   -0.48864093730354     -1.36742504998095     -0.03190879302182
  H   -1.19972102816476     -0.77810291303106      1.91215288666963
  C   0.29894222812832     -1.01301245315880     -1.12611026227424
  H   -1.03220145001433     -2.30532308855519     -0.03512659990985
  H   0.36742912075933     -1.67405643804287     -1.98285307208365
  H   1.59859646130718      0.48048915111937     -1.97942500047341
