21
Coordinates from ORCA-job opt
  C   0.92988249182578      1.03946930256007      0.02683791567742
  C   1.66882966077216      2.32273212040665      0.03344714403941
  C   -0.37977761301405      0.99507654678901      0.52282139923096
  C   1.49098382553499     -0.13633002446857     -0.48871496938122
  C   3.03785752754800      2.39647940640787     -0.25315710189721
  N   0.95085548709090      3.42563498802534      0.31771301485338
  C   3.67232109227887      3.63202475831494     -0.25444206503850
  H   3.61002402296316      1.50002181966134     -0.45275062342946
  C   2.92641848042045      4.76892383236647      0.03473123491419
  H   4.73192019010015      3.70259620115718     -0.47286026394421
  C   1.57328506373965      4.60747731771423      0.31808500347794
  H   3.37608462531070      5.75431168075294      0.04534703719717
  H   0.95343118594312      5.46753984252813      0.55450927035751
  C   -1.09802820308746     -0.19564129961302      0.51990236855113
  H   -0.81692644424546      1.90676218962444      0.91031728292356
  C   -0.52777859009941     -1.36322708483044      0.01561724888169
  H   -2.10873828943499     -0.21198359343742      0.91261592415237
  C   0.76902335239009     -1.32616047195916     -0.49151098198172
  H   -1.08925738498122     -2.29057947475627      0.01270880027736
  H   1.21980723007636     -2.22477398438151     -0.89784172673758
  H   2.48768228886820     -0.13165507286225     -0.91337391212418
