21
Coordinates from ORCA-job opt
  C   1.01884948365050      0.99005057964640      0.11817358121823
  C   1.77359265961008      2.26231520389922      0.12764419353690
  C   1.55579264048389     -0.13363493473948     -0.51577108985422
  C   -0.26676559948434      0.92270589716849      0.66212041536442
  C   1.32273963416912      3.35190946682722     -0.62371302556683
  N   2.92970857023180      2.28385131823689      0.81403842932384
  C   2.07232669021492      4.52253171476856     -0.63672097226572
  H   0.39906827382057      3.26840729881118     -1.18517616743094
  C   3.25632629662731      4.55942401583698      0.09191020333533
  H   1.74486787848830      5.38184341024086     -1.21101415625680
  C   3.63988129847627      3.41910830010930      0.79243627691246
  H   3.87730770209552      5.44684741958558      0.11344120274806
  H   4.56386766334442      3.40827906823838      1.36303683686234
  C   0.82501515883675     -1.31659731965120     -0.58218431601681
  H   2.55121203284798     -0.07469624991096     -0.94305286404377
  C   -0.45067933385338     -1.38417668963684     -0.02365322242508
  H   1.24827708934134     -2.18483426652211     -1.07491055272418
  C   -0.99447377907162     -0.26365988614526      0.60109674348920
  H   -1.01784597323403     -2.30664411909163     -0.07443914770108
  H   -1.98520348419291     -0.31271559725365      1.03903760948702
  H   -0.68596490240249      1.79838636958206      1.14769902200761
