21
Coordinates from ORCA-job opt
  C   0.95273639896880      1.02499354222011     -0.03782705243256
  C   1.70781854082896      2.30036180119952     -0.05615199333104
  C   0.75753244424113      0.29130957261308      1.14000088553439
  C   0.41246971053570      0.52803645327562     -1.23145678235255
  C   2.27379190918290      2.85357794387819      1.09961202254574
  N   1.82453039843974      2.90824435943521     -1.25179260932314
  C   2.97003622675296      4.05260025058460      1.01578820258794
  H   2.17693229760370      2.36091317061835      2.05757789304018
  C   3.08783463202474      4.67641259951790     -0.22080551982107
  H   3.41236139127566      4.49028135055402      1.90358612072744
  C   2.49621869668374      4.06060241401437     -1.31994576397020
  H   3.62109339487898      5.61215181804131     -0.33553964090361
  H   2.56242135568773      4.51139688564372     -2.30590207623406
  C   0.04344312315122     -0.90331461528982      1.12394257662696
  H   1.15845019864614      0.64016829945784      2.08358423106568
  C   -0.48958407983374     -1.38876543650338     -0.06776599643761
  H   -0.09589445649497     -1.45528663698034      2.04675636531567
  C   -0.30057579164591     -0.66593582711406     -1.24431205949020
  H   -1.04557554751830     -2.31932298000169     -0.07904304996143
  H   -0.71077460835796     -1.03370096747671     -2.17832039512294
  H   0.56263476494879      1.09397600231214     -2.14198435806357
