21
Coordinates from ORCA-job opt
  C   1.00973681327949      0.99555316371798     -0.04763837958072
  C   1.77772811180818      2.25554217599166     -0.05252308218671
  C   1.64965581148162     -0.20589644693520      0.27643701776782
  C   -0.35774474599812      0.98085897648017     -0.34566202283264
  C   1.19141914517830      3.46197936758880      0.34791574863707
  N   3.06891420043174      2.17579606687924     -0.42392520146382
  C   1.95119316767243      4.62494689901473      0.33388191182839
  H   0.16195030601071      3.47865485168616      0.68529809621139
  C   3.28017140921027      4.54779927555865     -0.06836842660081
  H   1.51743683899689      5.56931959156964      0.64292021756054
  C   3.78889584486750      3.30274655939217     -0.42823243621177
  H   3.91378256157092      5.42600140471155     -0.09605010207549
  H   4.82501311626628      3.19993849543976     -0.73733940142285
  C   0.93162136876421     -1.39674628904517      0.30954079890358
  H   2.71067582157292     -0.18847958402856      0.49658866113316
  C   -0.43126249516514     -1.40509969730110      0.01466796442733
  H   1.43547313593771     -2.32135946572510      0.56863471669566
  C   -1.07233774027315     -0.21358126975080     -0.31835384337271
  H   -0.98839725520856     -2.33480684629722      0.03807529740681
  H   -2.12849711594571     -0.21484717593641     -0.56395067963681
  H   -0.85752830045848      1.90038094698906     -0.63191585518741
