21
Coordinates from ORCA-job opt
  C   1.00100331966757      0.99864535678138     -0.00014211569125
  C   1.77343662991295      2.25916401214042     -0.00249185968641
  C   1.66612621448697     -0.21986581878126      0.18329615146240
  C   -0.38488554775526      0.98763478331862     -0.20186562975800
  C   1.16357389918516      3.49787027622031      0.23140840759255
  N   3.09366684337189      2.15457615434889     -0.24338749499783
  C   1.93239299898787      4.65430638285992      0.19797294883804
  H   0.10744397930364      3.55527426614095      0.46217498590893
  C   3.29422315475189      4.54578838082351     -0.06070927575282
  H   1.47628511140689      5.62085826914065      0.38021770039574
  C   3.82272889710024      3.27431985261770     -0.26642844707039
  H   3.93474588226796      5.41849257435967     -0.09746824109000
  H   4.88279941511698      3.14407932922815     -0.46377443289014
  C   0.95757546709556     -1.41666845427340      0.18623324488448
  H   2.73999374323472     -0.20862692024670      0.32403400296907
  C   -0.42370428347266     -1.41888527855993     -0.00306725712106
  H   1.48539779171417     -2.35181809521890      0.33708911095457
  C   -1.09081779998126     -0.21214841065162     -0.20195451292081
  H   -0.97399384375823     -2.35292016709609     -0.00303430524846
  H   -2.16240386483507     -0.20393782206476     -0.36728050751218
  H   -0.91768800780198      1.91256132891249     -0.39082347326641
