21
Coordinates from ORCA-job opt
  C   0.93570566283153      1.03923355969886      0.02640413552490
  C   1.64858419675488      2.33290483743968      0.03511730407545
  C   0.29011784710940      0.59196570375816     -1.13024974460548
  C   0.83909985444715      0.28769812303002      1.20090742421145
  C   2.71515712895099      2.56033592613086     -0.84079380624548
  N   1.27528309300148      3.22682892179744      0.96808183763303
  C   3.39259268514199      3.77256051750520     -0.78412649077389
  H   3.00130441635301      1.78924934520141     -1.54722140151425
  C   2.99141297174393      4.71240645978431      0.15928985358222
  H   4.22268494870621      3.97344755175978     -1.45200330508034
  C   1.93736802648367      4.38986175930355      1.00982120093822
  H   3.48711541382798      5.67181792262509      0.24532851762663
  H   1.60594126532747      5.09419234312358      1.76715717425931
  C   -0.41219327866513     -0.61091037892369     -1.12256698150826
  H   0.33382941096739      1.19448973488085     -2.03224424335391
  C   -0.48247092351438     -1.36997067064829      0.04381383937211
  H   -0.91454556655362     -0.94883387973503     -2.02211376558371
  C   0.14369823140301     -0.91769661339417      1.20486383957401
  H   -1.02842226687201     -2.30653911611357      0.05042603920008
  H   0.08351823814043     -1.50219875739587      2.11619559841806
  H   1.31211864441462      0.65785871017183      2.10391297424988
