21
Coordinates from ORCA-job opt
  C   0.93373346217301      1.03994776867934      0.02126760170591
  C   1.64693547199761      2.33468913359228      0.02959291102677
  C   0.24937259600766      0.61412527767994     -1.12074193094235
  C   0.87693744209531      0.26703463736026      1.18418314247120
  C   2.74945417533528      2.54094944434995     -0.80566888396180
  N   1.23449624142250      3.25029492182297      0.92403845569289
  C   3.42598692214018      3.75383269420724     -0.74847987096821
  H   3.06172088180976      1.75392425249533     -1.48286493212186
  C   2.98629788010514      4.71546697760671      0.15489510508888
  H   4.28350042503457      3.93909097822968     -1.38551499856706
  C   1.89597843113642      4.41392228426550      0.96645209903099
  H   3.47938723971411      5.67634347925365      0.23972224315624
  H   1.53332373265864      5.13618892205914      1.69189380064188
  C   -0.45354656352367     -0.58852784225250     -1.11110210938428
  H   0.26571341360176      1.23202418739256     -2.01315197980144
  C   -0.48538979236071     -1.36839366406730      0.04314865639613
  H   -0.98552453226488     -0.91041723616359     -1.99942685734851
  C   0.18037385838732     -0.93790251347110      1.19023975303003
  H   -1.03188086485769     -2.30462644722193      0.05129406373760
  H   0.15024650597819     -1.53862872899451      2.09245871632361
  H   1.38078207340950      0.61936147317636      2.07776301479337
