21
Coordinates from ORCA-job opt
  C   0.96799083733879      1.01695965381818     -0.04559554826832
  C   1.70994554568907      2.29840320962255     -0.06178433745789
  C   0.85534937380734      0.23904818136312      1.11425432216697
  C   0.33505164238895      0.57271327132606     -1.21404913052707
  C   2.16621609862418      2.91156467729273      1.11193612002009
  N   1.93837454407050      2.84218370822652     -1.27213804374147
  C   2.87527173140701      4.10319133892656      1.03169124134851
  H   1.95403524511657      2.47862111426739      2.08060448358262
  C   3.11169368444332      4.65973852883381     -0.22005012289284
  H   3.23183180098300      4.58918843439542      1.93286375666854
  C   2.61719028452878      3.99076171224947     -1.33596882495415
  H   3.65999653613725      5.58696332867601     -0.33371035070078
  H   2.77458346488035      4.39149291324584     -2.33319854037550
  C   0.13610670913762     -0.95236947314241      1.10349310124916
  H   1.35165501262204      0.53866818670009      2.02950804505602
  C   -0.49087651896326     -1.38504607555290     -0.06269192412149
  H   0.06701060886652     -1.54397547641845      2.00961002273981
  C   -0.38435946807673     -0.61730782361509     -1.22110370143781
  H   -1.05180048741932     -2.31271242389125     -0.06951989227891
  H   -0.86846985251175     -0.94469851356956     -2.13460391405684
  H   0.42110320692976      1.17531052724589     -2.10954676201866
