21
Coordinates from ORCA-job opt
  C   1.01085220411113      0.99339993663259     -0.08039024693602
  C   1.77506195763573      2.26331146568266     -0.09550037491240
  C   1.46864245709788     -0.09320257316823      0.66854929529680
  C   -0.18969267484902      0.88421156090473     -0.78634982438558
  C   1.43601087688899      3.29627142307046      0.78273237722490
  N   2.80153153904392      2.35128804464147     -0.95890444226821
  C   2.17613588875947      4.47319615974742      0.76183492207100
  H   0.60370362045602      3.16595467295359      1.46494748377653
  C   3.23421328889278      4.57470654330817     -0.13490819490229
  H   1.93405162570638      5.28992158232906      1.43254091467818
  C   3.50433606009761      3.49186486749208     -0.96724331885736
  H   3.84218570743772      5.46952781256410     -0.19098415809944
  H   4.32516013291849      3.53465053970458     -1.67703881160765
  C   0.73870772674982     -1.27897359853648      0.70247519270324
  H   2.40184646399385     -0.00728401589258      1.21544145014922
  C   -0.45565460654859     -1.38554497293272     -0.00802837987923
  H   1.10161980698369     -2.11895054163918      1.28422210482604
  C   -0.91813140478454     -0.30294663342079     -0.75370870491706
  H   -1.02272512185090     -2.30904677056840      0.01830556621812
  H   -1.84548448236626     -0.38251254888346     -1.30990986597950
  H   -0.54447106637417      1.72885704601095     -1.36808198419928
