21
Coordinates from ORCA-job opt
  C   0.97151528599521      1.01560803373893     -0.04977279424550
  C   1.71363095606971      2.29556616181259     -0.06625708114752
  C   0.89861331886881      0.21835124969828      1.09979375182393
  C   0.30043024418783      0.59279437373429     -1.20444702923810
  C   2.11857020427162      2.93444763054083      1.11242325846724
  N   1.99029396773548      2.81223450598392     -1.27837406720976
  C   2.83177363794539      4.12386969346962      1.03587894471036
  H   1.85917084111053      2.52283299356082      2.07921345624279
  C   3.12095661156615      4.65193853334551     -0.21724451571805
  H   3.14906915750013      4.63117868104248      1.93998805814576
  C   2.67192886253276      3.95966004451751     -1.33828003215796
  H   3.67458741542130      5.57631614415934     -0.32836756354952
  H   2.87049926890909      4.33943552905930     -2.33634731911819
  C   0.17743792614711     -0.97199169688522      1.09290492759237
  H   1.43179007728704      0.50216605954996      1.99959425148527
  C   -0.48993970221612     -1.38274026257017     -0.05882007277082
  H   0.14008264630560     -1.58094619285986      1.98934152272962
  C   -0.42152124294212     -0.59575066856617     -1.20731515640951
  H   -1.05244962633400     -2.30946960901457     -0.06270810087371
  H   -0.93733123611642     -0.90707876722325     -2.10899431367509
  H   0.35879438575490      1.21028056290588     -2.09221112508362
