21
Coordinates from ORCA-job opt
  C   0.93595496860253      1.03971988633261     -0.03812950442722
  C   1.65452243569952      2.32844349709009     -0.04883024913448
  C   0.36765153535931      0.55043494099414      1.14260202345189
  C   0.76578233053340      0.32562230712531     -1.22811726955754
  C   2.64685555614191      2.59850113390902      0.90002475435005
  N   1.35774493715190      3.18214196592262     -1.04526780144622
  C   3.32544725772232      3.80985073055616      0.84619459954165
  H   2.88162139566277      1.85872799464375      1.65687502451866
  C   3.00189829458165      4.70747880606395     -0.16572726876975
  H   4.09907183625547      4.04178161239057      1.56950835408874
  C   2.02085605055273      4.34404594104721     -1.08442804994585
  H   3.50220675918815      5.66445569747694     -0.25196628102151
  H   1.75143359075435      5.01391538125025     -1.89573883769251
  C   -0.33248400504522     -0.65334702053958      1.13985035813818
  H   0.46237343239709      1.12400811422649      2.05935513313840
  C   -0.47669862274121     -1.37409470810061     -0.04397412696317
  H   -0.77599089943314     -1.02195237392338      2.05809633656201
  C   0.07289137487219     -0.88088554775816     -1.22702172406897
  H   -1.02078455431878     -2.31178018980498     -0.04656201066986
  H   -0.04394645832572     -1.43566334468470     -2.15135666873526
  H   1.18149378438878      0.72729617578229     -2.14538979135724
