21
Coordinates from ORCA-job opt
  C   0.89890263290270      1.05951181389160     -0.04249677830788
  C   1.63784053438688      2.34470099020460     -0.05302698228908
  C   0.02787738424121      0.75697966461137      1.00684690513661
  C   1.07391026995916      0.13821743820705     -1.07782315811207
  C   2.89670524534202      2.43544207539797      0.54728522090208
  N   1.04295313921890      3.38856020268345     -0.65554741182649
  C   3.57119778203401      3.65116795754344      0.52586978456221
  H   3.32721747560884      1.55956800015879      1.01911367254320
  C   2.96199597486225      4.73561449164537     -0.09610527494215
  H   4.54891501119772      3.74883448497263      0.98413224076213
  C   1.70578588619516      4.55289538852513     -0.66771636744545
  H   3.44454768893626      5.70445644268822     -0.14054470669747
  H   1.20058980539908      5.37775367157252     -1.16143717877442
  C   -0.66117090475673     -0.45361483650487      1.01991012007153
  H   -0.11192894484559      1.47669554317031      1.80682458917599
  C   -0.48311250238919     -1.37007671454379     -0.01482102216993
  H   -1.33774725299198     -0.68047158719511      1.83627840287775
  C   0.38440590843787     -1.07213787190658     -1.06404395608437
  H   -1.01980249404330     -2.31187059645970     -0.00455263157941
  H   0.52298064698498     -1.78117836824220     -1.87258283496429
  H   1.74583771331975      0.37765080957978     -1.89556263283850
