21
Coordinates from ORCA-job opt
  C   1.01684931276195      0.99209343251631     -0.09824495953951
  C   1.77718685314594      2.25669905815958     -0.10461805574635
  C   1.62269831025800     -0.18037600070559      0.36393460597673
  C   -0.32696834241099      0.96294237520746     -0.48508202619133
  C   1.23169160919746      3.41803367946740      0.45352753248958
  N   3.02819977954702      2.21242477997713     -0.59774844725363
  C   1.98670360528490      4.58453011349760      0.46451765572211
  H   0.23580196694513      3.39229168506667      0.88073723418493
  C   3.27064522310393      4.54987846933091     -0.06898954926691
  H   1.58652319641819      5.49656513009982      0.89289690814011
  C   3.74322942339511      3.34342658965548     -0.57859939707182
  H   3.89959163884060      5.43178672938478     -0.08295391955928
  H   4.74552456072456      3.27518689169920     -0.99129478015851
  C   0.89691917904432     -1.36578954149968      0.42626127355604
  H   2.66463727974916     -0.14959153916580      0.66253245500623
  C   -0.43996276276701     -1.39224789874643      0.03032904932447
  H   1.37252345017170     -2.27011333741686      0.78933307753176
  C   -1.04904535245022     -0.22644955091628     -0.42992406619918
  H   -1.00286111630139     -2.31758318853498      0.07689991909472
  H   -2.08556984714942     -0.24383558883186     -0.74784300758822
  H   -0.79641796750894      1.86882971175512     -0.85567050245194
