21
Coordinates from ORCA-job opt
  C   0.91560948467706      1.05006953162704      0.00478874213570
  C   1.65188403413202      2.33071593878544      0.00816374662011
  C   -0.33661789292934      0.96937538220776      0.62537103593702
  C   1.43691526706777     -0.08932018857525     -0.62026315500416
  C   3.04642567924814      2.37430840862335     -0.10990360932330
  N   0.91449201006710      3.44906770409869      0.13935663124611
  C   3.69165982459485      3.60447575842656     -0.11509367719377
  H   3.61909721697878      1.45726901955652     -0.17075021710253
  C   2.92854779719589      4.76044953320223      0.00739568991101
  H   4.77106438425448      3.65735539984377     -0.20213586839475
  C   1.54906141418809      4.62552699228105      0.13899728451029
  H   3.38555114651655      5.74249599969319      0.00833518085574
  H   0.91795708590647      5.50293209335941      0.24624206492964
  C   -1.04110703053947     -0.22985623303658      0.63579589231705
  H   -0.74186146349930      1.85749013009552      1.09506581763602
  C   -0.51174223016390     -1.36342265551310      0.02023743920501
  H   -2.00654637236916     -0.28080110750864      1.12689019421210
  C   0.72731594205280     -1.28698705028580     -0.61224023133693
  H   -1.06367377054911     -2.29647199089394      0.02691344652188
  H   1.13905397549752     -2.15850762863593     -1.10884946996392
  H   2.38481249767274     -0.03746703735128     -1.14431693771832
