19
Coordinates from ORCA-job opt
  C   1.00542374983644      1.00595392306466     -0.00959939563025
  C   -0.45470039534362      1.00298313287258      0.03993935412965
  C   1.72809751134028     -0.04023008578331      0.58132309454042
  C   1.71155117678597      2.03802475304810     -0.64293346669183
  C   -1.31320902293428     -0.08576837490024      0.04868018282707
  S   -1.35221783317923      2.46667604957270      0.11116972850299
  C   -2.67254446834670      0.28156728717124      0.10525507978463
  H   -0.95919619455804     -1.10716164782202     -0.01534198286529
  C   -2.84739386062772      1.64936848891061      0.14148990283891
  H   -3.49520191080901     -0.42161610264442      0.11072006043265
  H   -3.77207260589206      2.20564631250355      0.18797552655199
  C   3.11795734482574     -0.05763334855556      0.52935426455188
  H   1.19413527618817     -0.82741653899388      1.10276917698930
  C   3.81138222508734      0.97506780707489     -0.09972247665052
  H   3.66159694699562     -0.87342533424229      0.99285787550458
  C   3.10219675128159      2.02412441327356     -0.68165529325845
  H   4.89469123883786      0.96346962552234     -0.13423781040934
  H   3.63271150388939      2.82975790478565     -1.17688974882890
  H   1.16499156662225      2.84231173514184     -1.12495107231948
