19
Coordinates from ORCA-job opt
  C   1.00531226617817      1.00782507025949     -0.00699352713410
  C   -0.45476734442982      1.00490516955062      0.04211701023841
  C   1.72773008483110     -0.03801764479187      0.58471300545301
  C   1.71140549017431      2.03815457583025     -0.64314362394720
  C   -1.31194719575690     -0.08486820461350      0.04791917593745
  S   -1.35319388507813      2.46781983740570      0.11568896415355
  C   -2.67168365068163      0.28104463885329      0.10460075566793
  H   -0.95586758980142     -1.10535234201197     -0.01846539229123
  C   -2.84753495926779      1.64870196918590      0.14375237632276
  H   -3.49451844824059     -0.42188521658871      0.10826417494451
  H   -3.77311491857050      2.20341877636014      0.19116350229784
  C   3.11751120898060     -0.05741525014570      0.52978650502567
  H   1.19362777189426     -0.82352633519616      1.10847733135370
  C   3.81099590841942      0.97307517109654     -0.10295088829120
  H   3.66096586132509     -0.87301322173340      0.99377746852577
  C   3.10199196026509      2.02238472546369     -0.68470281946298
  H   4.89417167035865      0.95964861475641     -0.13989332456470
  H   3.63228661610830      2.82650191860616     -1.18258410878929
  H   1.16483115329178      2.84229974771312     -1.12532558543989
