19
Coordinates from ORCA-job opt
  C   1.01021392750612      0.92729769307723      0.10994921007899
  C   -0.44916516209048      0.90288391656545      0.17220283727662
  C   1.79323003201811      0.49030823177805      1.18739704209907
  C   1.65362333419995      1.37382360453620     -1.05308949171079
  C   -1.34937172818850      0.69305088109126     -0.86127722384538
  S   -1.28943406607636      1.16248323114597      1.64859137037573
  C   -2.69385362470266      0.73769434971320     -0.44137668211551
  H   -1.03138260602766      0.48384629934995     -1.87502104901314
  C   -2.81531346588917      0.98412782890391      0.91041992203587
  H   -3.54393870503224      0.58787208497582     -1.09414247208775
  H   -3.71889570343116      1.07113516719783      1.49577162549809
  C   3.18182742925303      0.49771887367724      1.10171564961906
  H   1.30795832025644      0.12056792252575      2.08500228177153
  C   3.81196259351219      0.92895993090414     -0.06411632179052
  H   3.77287104397576      0.15313408378209      1.94292942870827
  C   3.04183946725167      1.36739545677547     -1.14015916620001
  H   4.89375612840799      0.92832097161793     -0.13176057503616
  H   3.52415175766003      1.71566974351106     -2.04675951998779
  H   1.05811902739694      1.74541072887147     -1.88007786567617
