19
Coordinates from ORCA-job opt
  C   1.01110686028956      0.83463542032690      0.08876402696091
  C   -0.44815671741318      0.79911223274880      0.14949233168790
  C   1.78939813042695      0.83885410443258      1.25459772520488
  C   1.65931488231621      0.87025548263332     -1.15400975395363
  C   -1.35898401770056      1.36312281575431     -0.73079982198653
  S   -1.27378249056665     -0.02114140500274      1.41365561669225
  C   -2.69961235735380      1.12921556067600     -0.36500394120362
  H   -1.05214635862811      1.94876060013439     -1.58840709154194
  C   -2.80759783026606      0.38549576270870      0.79181633085681
  H   -3.55651857537434      1.49415601081087     -0.91613178277663
  H   -3.70524918134585      0.05992428037315      1.29666872385868
  C   3.17805916987902      0.87613008506169      1.17820220310850
  H   1.30031863636903      0.83486308132707      2.22345992304984
  C   3.81299835830225      0.92166826503286     -0.06152796093033
  H   3.76525321754079      0.88058248216157      2.08973999915806
  C   3.04744535726486      0.92083172250426     -1.22647442648306
  H   4.89483696851582      0.95501200862152     -0.11953968631248
  H   3.53336437962049      0.94638149272951     -2.19553510542107
  H   1.06815256812358      0.83383899696524     -2.06276630996854
