19
Coordinates from ORCA-job opt
  C   1.00527883372311      1.00677463494680     -0.00863168827021
  C   -0.45472811648204      1.00440618280269      0.04162331634621
  C   1.72786545252316     -0.03875045677902      0.58344893961963
  C   1.71121825629536      2.03734179776559     -0.64457968281861
  C   -1.31239676259711     -0.08504749324411      0.04875394844170
  S   -1.35241722849541      2.46778027703450      0.11529882062716
  C   -2.67192813273749      0.28151517992861      0.10586156784619
  H   -0.95676270195849     -1.10571233522689     -0.01717679877183
  C   -2.84712073202602      1.64928955160048      0.14465613515933
  H   -3.49512266524784     -0.42098524629528      0.11030601595696
  H   -3.77241690903120      2.20445539793153      0.19235662918701
  C   3.11771308413770     -0.05733750473819      0.52946686436366
  H   1.19394951572580     -0.82444304440233      1.10711574525368
  C   3.81105915375875      0.97368576975504     -0.10257969875502
  H   3.66131867889383     -0.87255371552147      0.99394439775330
  C   3.10186015276291      2.02237480307737     -0.68518663725970
  H   4.89427421768583      0.96097746866361     -0.13858054338344
  H   3.63203518035403      2.82674974842026     -1.18277439827784
  H   1.16452072271510      2.84117898428082     -1.12712193301817
