19
Coordinates from ORCA-job opt
  C   1.01207724058545      0.90936081347084     -0.10063970164541
  C   -0.45980046155735      0.88986837949376     -0.08100808948242
  C   1.73306923557675     -0.27181885129064     -0.30887770122613
  C   1.70677771507142      2.10968690572756      0.08640565559701
  C   -1.30532377934057      0.70222162287410      0.99750937591566
  S   -1.36523110418793      1.11792244608459     -1.51969938561489
  C   -2.67082347465704      0.74585634111316      0.64139286417250
  H   -0.93270659636088      0.54035221241292      2.00138116519223
  C   -2.85649498959242      0.96658612545010     -0.70702903424990
  H   -3.48838094500920      0.62125868464420      1.33952715292065
  H   -3.78664641224159      1.04591901135777     -1.25040416238042
  C   3.12531908810765     -0.25245121085169     -0.32596499490182
  H   1.19276208847952     -1.20098584092557     -0.45652104450264
  C   3.81058440216167      0.94656265961031     -0.13863532863452
  H   3.67507184725488     -1.17303550872731     -0.48720298001418
  C   3.09905252779133      2.12679259207425      0.06895449663079
  H   4.89446247619432      0.96100553737015     -0.15355193149650
  H   3.62832190171367      3.06169601328078      0.21568796593244
  H   1.14610824001029      3.02490206683072      0.24487367778756
