19
Coordinates from ORCA-job opt
  C   1.00412448101072      0.98258872337988     -0.06429170081833
  C   -0.45650234008054      0.97310784948041     -0.04076240411689
  C   1.71538364572781     -0.21113144999701      0.12342575817429
  C   1.72187589031605      2.16616370006881     -0.28541855967538
  C   -1.29963762176620      0.15191159653662      0.69251924153488
  S   -1.37566696100699      2.05690045834728     -1.00709254964194
  C   -2.66497839676230      0.41758062485786      0.46651002871234
  H   -0.92788190790076     -0.59000679926552      1.38821312575263
  C   -2.85937889914152      1.43872935814081     -0.44045316708355
  H   -3.47857754188005     -0.10731505767147      0.94995903662757
  H   -3.79343476205870      1.84632612944207     -0.79833054625306
  C   3.10608254703298     -0.21745349425509      0.09777066021936
  H   1.17035111861795     -1.13867222703242      0.26217244743323
  C   3.81081756436229      0.96333725904193     -0.13127268241913
  H   3.64090652461919     -1.14976316715379      0.24127251116937
  C   3.11263079220488      2.15395909610226     -0.32370208045411
  H   4.89433260484405      0.95559950607882     -0.15899218516718
  H   3.65240633849950      3.07839717674986     -0.49621435670797
  H   1.18534592336161      3.10143971714866     -0.40911257728613
