19
Coordinates from ORCA-job opt
  C   1.00434419294585      0.98370503417098     -0.05853900545162
  C   -0.45631064674251      0.97338209851533     -0.03773120186100
  C   1.71576265674667     -0.21031645245127      0.12703048917447
  C   1.72171173177668      2.16726065270471     -0.28095918751741
  C   -1.30042327100657      0.15161158707336      0.69369145656682
  S   -1.37386514075177      2.05703867250806     -1.00577157099389
  C   -2.66542015716022      0.41644872114531      0.46470864103267
  H   -0.92963642867083     -0.59040221635803      1.38978979886861
  C   -2.85840115420486      1.43775578330494     -0.44232063721492
  H   -3.47983915752424     -0.10899908893694      0.94612677990365
  H   -3.79205088324910      1.84454745095967     -0.80215293514303
  C   3.10639395414491     -0.21716344189342      0.09654578167537
  H   1.17063013201403     -1.13762446661863      0.26674745733651
  C   3.81068669540036      0.96332034963540     -0.13560694647732
  H   3.64139373580259     -1.14971151899767      0.23764888003837
  C   3.11236333699763      2.15450667572587     -0.32405840785809
  H   4.89405186243200      0.95505813542751     -0.16778269651045
  H   3.65194761402529      3.07875054764144     -0.49808678396272
  H   1.18486092702410      3.10253247644336     -0.40307991160601
