19
Coordinates from ORCA-job opt
  C   1.00384360615144      0.98107851540136     -0.07541163815476
  C   -0.45688570916728      0.97084720833467     -0.04712856288621
  C   1.71589026546921     -0.21198190626446      0.11299169335748
  C   1.72059745660762      2.16645813775260     -0.28990298252820
  C   -1.29706142290820      0.14996108566261      0.68963189605297
  S   -1.37990787332638      2.05381803765814     -1.01014758169432
  C   -2.66327792851129      0.41531338013877      0.46865085313237
  H   -0.92284655060663     -0.59174304963595      1.38426032280963
  C   -2.86153613707563      1.43605736080524     -0.43784335114083
  H   -3.47441025797786     -0.10979022930832      0.95607660477455
  H   -3.79644438496438      1.84406658078405     -0.79295576052412
  C   3.10673043686090     -0.21552964905281      0.09721199974825
  H   1.17109712587159     -1.14038629248624      0.24696124749539
  C   3.81064139990197      0.96755731572917     -0.12168077120039
  H   3.64235910263057     -1.14714070226682      0.24239799110981
  C   3.11153292705694      2.15699777983102     -0.31815048054065
  H   4.89438627456734      0.96226260334924     -0.14040130832844
  H   3.65075830716230      3.08294358064316     -0.48427838836495
  H   1.18273236225777      3.10090924292458     -0.41408278311759
