19
Coordinates from ORCA-job opt
  C   1.00334841055903      0.98014370432221     -0.08260914495808
  C   -0.45719452002598      0.97067734690073     -0.05135374736939
  C   1.71536063452136     -0.21252357344709      0.10811265426219
  C   1.72044412373682      2.16571974914279     -0.29478089311558
  C   -1.29535526939562      0.14904102417962      0.68675067029882
  S   -1.38244141377760      2.05546142476199     -1.01044956733128
  C   -2.66220298573812      0.41468372332344      0.46961252331212
  H   -0.91955601270812     -0.59341644376318      1.37965704533907
  C   -2.86256123619353      1.43683059654540     -0.43482994248834
  H   -3.47244544652514     -0.11071757085263      0.95812201200188
  H   -3.79850905561437      1.84537101328295     -0.78661580624996
  C   3.10632943459170     -0.21516592597408      0.09894054316606
  H   1.17109185711539     -1.14148318824786      0.24011162236978
  C   3.81067276898396      0.96854293941564     -0.11535336145899
  H   3.64157700075519     -1.14657588675691      0.24664366476626
  C   3.11154482664754      2.15720743615164     -0.31652383699938
  H   4.89447739650835      0.96398913728108     -0.12806414474186
  H   3.65051445866127      3.08373851622833     -0.48009214608549
  H   1.18310502789786      3.10017597750593     -0.42107714471783
