19
Coordinates from ORCA-job opt
  C   1.01043705288012      0.89885810122677      0.09913885390940
  C   -0.44888099365636      0.88930137241999      0.16623372431605
  C   1.79279646328479      0.46739908865567      1.17923879731899
  C   1.65504026870370      1.35474051148414     -1.05953020851058
  C   -1.35551596869331      0.69267191080376     -0.86427504054941
  S   -1.28024930343460      1.15399911744310      1.64657531385236
  C   -2.69776989791508      0.75230078979468     -0.43916453839258
  H   -1.04486761880088      0.48305035440538     -1.88022425949510
  C   -2.81099444684683      0.99645168741603      0.91383275471795
  H   -3.55193676905345      0.61497000832079     -1.08933249758595
  H   -3.71077841309045      1.09355076482193      1.50342493380561
  C   3.18174253963836      0.49609781083577      1.10321694429769
  H   1.30757498029297      0.09031661285868      2.07380780904976
  C   3.81339732468441      0.94512692126058     -0.05500859852296
  H   3.77168111566605      0.15838736808049      1.94798023782517
  C   3.04380974886048      1.36965666537635     -1.13702413028043
  H   4.89550450412612      0.96441203354551     -0.11406013265279
  H   3.52647151689674      1.72821087446634     -2.03941053850709
  H   1.06073689645721      1.72219900678404     -1.88921942459607
