19
Coordinates from ORCA-job opt
  C   1.01053840651162      0.90224960836108      0.10020678399590
  C   -0.44889728357038      0.88986273109752      0.16609354779198
  C   1.79304192305600      0.47253426671558      1.18091516788361
  C   1.65518582115459      1.35532664233779     -1.05958377705428
  C   -1.35541451584784      0.69281772461553     -0.86439903787887
  S   -1.28134039180538      1.15174775147063      1.64642601109752
  C   -2.69778279585913      0.75001688756369     -0.43933052793942
  H   -1.04549177358834      0.48472591686452     -1.88092446302637
  C   -2.81181743395325      0.99232736155359      0.91383666731869
  H   -3.55084963463531      0.61171009270142     -1.09079826940483
  H   -3.71140560172229      1.08719039868751      1.50407220700042
  C   3.18191658529886      0.49949381294939      1.10408898560772
  H   1.30796701906947      0.09730582162903      2.07637779373681
  C   3.81348468061482      0.94481324506087     -0.05560902091774
  H   3.77213715888534      0.16299186853535      1.94916517337172
  C   3.04385632422648      1.36863680603964     -1.13778802307075
  H   4.89562333030882      0.96228818384944     -0.11521940812931
  H   3.52653086787186      1.72444024693290     -2.04129411026213
  H   1.06091731398405      1.72122063303450     -1.89003570012068
