19
Coordinates from ORCA-job opt
  C   1.01606919282983      0.96517851230124      0.05276480189939
  C   -0.45481227625122      0.96185818578763      0.11653640363617
  C   1.76500524697605      0.18367179111135      0.93973821382668
  C   1.68192219491741      1.75152557652560     -0.89416673560310
  C   -1.34497610338625      0.13861546896396     -0.54926726177826
  S   -1.29819786110348      2.07614936944845      1.11073437243150
  C   -2.69358476491326      0.42373119834477     -0.24384025755941
  H   -1.01548537346782     -0.63703050698166     -1.22944145182840
  C   -2.82195512433785      1.46311624631376      0.65319153196144
  H   -3.53956247285249     -0.10703919547651     -0.66093287686433
  H   -3.72774084099565      1.88907835939835      1.05920853581243
  C   3.15607579133200      0.18646281999611      0.87758890545303
  H   1.24723628514406     -0.42326632913360      1.67503646525725
  C   3.81246178377715      0.97175234398295     -0.06830704694727
  H   3.72753649102946     -0.42313285800358      1.56864972784361
  C   3.07306986181757      1.75281157958867     -0.95458441583380
  H   4.89554962280763      0.97444385886498     -0.11507206848379
  H   3.57979363020828      2.36483208515786     -1.69241969062785
  H   1.09979271646858      2.35894049380968     -1.57921615259530
