19
Coordinates from ORCA-job opt
  C   1.00704541971653      0.80510427429782     -0.06318955366459
  C   -0.45229814345872      0.75526512222942     -0.01672285875271
  C   1.71232270459226      1.55743450153254      0.88691031594595
  C   1.73003227095835      0.09861464263938     -1.03435094919215
  C   -1.33355556987088      1.73999069613529      0.40314964272870
  S   -1.31710107863913     -0.64739897427422     -0.50414501233288
  C   -2.68412943306514      1.34722154075982      0.31667953272216
  H   -1.00012044100019      2.71713298357347      0.72968353829311
  C   -2.82900741430313      0.06337117202881     -0.16672322909070
  H   -3.52262344603852      1.97555963595455      0.58745657118392
  H   -3.74188797661198     -0.48951809165443     -0.33294913346005
  C   3.10216040943513      1.60594190708289      0.86056571662718
  H   1.16434930571643      2.08097020346315      1.66295486772982
  C   3.81264098674680      0.89243757498218     -0.10348634036167
  H   3.63277352772115      2.18938409948978      1.60480100473092
  C   3.12064743875902      0.13876471894158     -1.04964419231168
  H   4.89598390221752      0.92437199514144     -0.11768254534388
  H   3.66483299805853     -0.41397363547757     -1.80731156785877
  H   1.19613553906596     -0.46897436684591     -1.78979480759266
