19
Coordinates from ORCA-job opt
  C   1.00702975538652      0.80625096298590     -0.06379559431453
  C   -0.45222035520979      0.75603409285247     -0.01760627157303
  C   1.71187819356558      1.55856861662670      0.88668469151536
  C   1.73036822285492      0.09886944431227     -1.03403584567170
  C   -1.33390585891889      1.74089001878532      0.40096969125486
  S   -1.31619130981726     -0.64769655105527     -0.50364685717936
  C   -2.68425559250071      1.34748409463353      0.31446211995165
  H   -1.00080779956423      2.71847711487439      0.72653541965507
  C   -2.82840000632959      0.06297015676871     -0.16742669155821
  H   -3.52332791937670      1.97547389791387      0.58419544592310
  H   -3.74139761987231     -0.48993087003194     -0.33295689721957
  C   3.10180191501219      1.60594529903269      0.86175781605077
  H   1.16330083376989      2.08260910293065      1.66195507315096
  C   3.81267995413766      0.89112921688937     -0.10108137159997
  H   3.63218516504091      2.18916859542022      1.60630057808922
  C   3.12107210508786      0.13784149496249     -1.04784409387911
  H   4.89605033733999      0.92199289391313     -0.11402552132465
  H   3.66566695045233     -0.41564945895419     -1.80464551650580
  H   1.19667302894164     -0.46872612286034     -1.78959517476506
