19
Coordinates from ORCA-job opt
  C   1.00403301700856      0.84731533410984     -0.12566475541645
  C   -0.45583660903418      0.80933427460471     -0.08904443433421
  C   1.74590650358213     -0.19318048810362     -0.70176174118453
  C   1.69072629692919      1.92637691641911      0.44894863571346
  C   -1.30415714163521      1.32426066438502      0.87933707698518
  S   -1.36683615451980      0.07326443658969     -1.34681440415266
  C   -2.66686658152546      1.10817760987263      0.59237650265207
  H   -0.93688599395526      1.80964304980479      1.77492614712754
  C   -2.85397284088422      0.43191130655874     -0.59528026738955
  H   -3.48356621140399      1.42395221019614      1.22832584571681
  H   -3.78476869563591      0.13609139143125     -1.05654917964056
  C   3.13676166928126     -0.15650379688813     -0.69860429002962
  H   1.22788795068717     -1.04542918826374     -1.12975238483332
  C   3.81055031762083      0.91176026750348     -0.10949213230354
  H   3.69564535846476     -0.97160653787821     -1.14460982694075
  C   3.08141389307987      1.95333499868175      0.46218461002080
  H   4.89413852395060      0.93555248730613     -0.10144693839791
  H   3.59739860722340      2.79458553183408      0.91146128211163
  H   1.12662909076623      2.75286153183634      0.86766125429563
