19
Coordinates from ORCA-job opt
  C   1.00545926073673      1.00389838176895     -0.01303513108855
  C   -0.45466734347672      1.00224526361379      0.03855598255426
  C   1.72795373455676     -0.04076825541679      0.58074311412187
  C   1.71140049390644      2.03567402450755     -0.64703336356026
  C   -1.31376400897908     -0.08609320243547      0.04472624672249
  S   -1.35074299908743      2.46622259943480      0.11613802420942
  C   -2.67271716671062      0.28200095975642      0.10426435707389
  H   -0.95930048238712     -1.10706545319469     -0.02340439505809
  C   -2.84642317152846      1.64986484219102      0.14587062694722
  H   -3.49636554725551     -0.42002444994152      0.10838224115382
  H   -3.77083664011409      2.20626278105516      0.19597868942350
  C   3.11793479996470     -0.05651640638068      0.53173195588378
  H   1.19315896174263     -0.82719105217594      1.10248628634281
  C   3.81128700139065      0.97656864898895     -0.09683602965156
  H   3.66183401767419     -0.87066537811990      0.99779121808649
  C   3.10214320852667      2.02345415942787     -0.68272603512443
  H   4.89469758947509      0.96651378355520     -0.12848896736386
  H   3.63288197093965      2.82884475857925     -1.17810517279829
  H   1.16426432062552      2.83847599478604     -1.13084064787453
