19
Coordinates from ORCA-job opt
  C   1.00705782587467      0.80270241616352     -0.06066372033347
  C   -0.45232558948687      0.75413290143166     -0.01689157218339
  C   1.71148309749589      1.55741307553907      0.88817337312698
  C   1.73114146152953      0.09518838025323     -1.03022116526992
  C   -1.33370160261551      1.74065620685755      0.39890630121734
  S   -1.31749172054211     -0.64923132188369     -0.50198750627520
  C   -2.68442290217902      1.34867237385907      0.31107767806709
  H   -1.00048547617925      2.71858446181774      0.72334212078238
  C   -2.82935019028895      0.06346276963900     -0.16886869994674
  H   -3.52285190227550      1.97841494365385      0.57873954512078
  H   -3.74237985023674     -0.48914135129335     -0.33523264451567
  C   3.10127040947676      1.60773944601999      0.86171572499363
  H   1.16350643417232      2.08218801799525      1.66339940182661
  C   3.81284374655099      0.89381754789126     -0.10127797697071
  H   3.63097740252438      2.19337238512841      1.60486784148353
  C   3.12176038116986      0.13706725542784     -1.04563340413092
  H   4.89612051090212      0.92747450790643     -0.11581621045254
  H   3.66650599116900     -0.41642683250046     -1.80233688700365
  H   1.19854097293843     -0.47438618390638     -1.78509019953614
