19
Coordinates from ORCA-job opt
  C   1.00556457403406      0.82923140259388     -0.09369106489672
  C   -0.45492538133243      0.80179549861081     -0.07338984017070
  C   1.74621500270081     -0.20769863105303     -0.67770326983343
  C   1.69335970413358      1.91262593605704      0.47115376746970
  C   -1.31135122141299      1.32743284305440      0.88203643291877
  S   -1.35570302130953      0.06670900681231     -1.33865531262460
  C   -2.67201168784589      1.12113514593616      0.57877876544067
  H   -0.95230677958352      1.81458461935823      1.78001508551654
  C   -2.84944567966923      0.44081016721309     -0.60811086402750
  H   -3.49395737747558      1.44702238947355      1.20278343411930
  H   -3.77609000358669      0.15059728315951     -1.08114898729579
  C   3.13651020245930     -0.15904664514627     -0.69976595600327
  H   1.22804432544385     -1.06358584448423     -1.09822720609001
  C   3.81147010707758      0.91894500153667     -0.13014667192253
  H   3.69385774478638     -0.96991997183496     -1.15534132693907
  C   3.08377017419291      1.95166464393066      0.45908274210523
  H   4.89467228500316      0.95435029987760     -0.14544255341048
  H   3.60003660897222      2.79839532969010      0.89764919709708
  H   1.13049142341200      2.73665052521449      0.89632262854680
