19
Coordinates from ORCA-job opt
  C   1.00424371221221      0.98339488485865     -0.06325700803944
  C   -0.45652441465200      0.97225099251350     -0.04088984696543
  C   1.71626184388137     -0.20996466051476      0.12374129037643
  C   1.72098862930769      2.16776846923700     -0.28352073946753
  C   -1.29918461533699      0.14879527375460      0.69019527489630
  S   -1.37609693406011      2.05728008995148     -1.00506701823988
  C   -2.66462077474956      0.41354044869192      0.46396230823212
  H   -0.92670788842088     -0.59422171550269      1.38432239096127
  C   -2.85962657052653      1.43642255068358     -0.44084558224418
  H   -3.47796773745470     -0.11326555996169      0.94579365763405
  H   -3.79370163785520      1.84388460592500     -0.79879855767827
  C   3.10692059492525     -0.21525305564328      0.09808708349818
  H   1.17112892962764     -1.13754459309167      0.26176135347966
  C   3.81062479933194      0.96622033103387     -0.13021979333311
  H   3.64254105712401     -1.14721684672144      0.24092726889537
  C   3.11166564940952      2.15655180239928     -0.32171026462891
  H   4.89415195835339      0.95923035705766     -0.15810823392451
  H   3.65091451818466      3.08143392739246     -0.49353508394799
  H   1.18318988069831      3.10239269793653     -0.40663749950413
