19
Coordinates from ORCA-job opt
  C   1.00316249752552      0.98210117199260     -0.08937530904436
  C   -0.45712464321710      0.97703635839022     -0.05084056983946
  C   1.72441885104840      2.17607386319524     -0.22759266408627
  C   1.71099799648126     -0.22216046670004      0.03210670852082
  C   -1.29531267177626      0.11682510132036      0.64224012165756
  S   -1.38256030798999      2.11998982187235     -0.94007152547830
  C   -2.66197664899173      0.40134944543803      0.44934666835318
  H   -0.91872349854429     -0.66640037956793      1.28825800762855
  C   -2.86234458968963      1.47549084724530     -0.39277704341338
  H   -3.47223213084912     -0.14766817394629      0.91112346962683
  H   -3.79867690411536      1.90795317489133     -0.71360005611137
  C   3.11563541200737      2.16486911719947     -0.24190853928611
  H   1.19015636981541      3.11803587845429     -0.29941321883965
  C   3.81047808684817      0.96449922516844     -0.10602959117983
  H   3.65829116357035      3.09775850402294     -0.34649499307971
  C   3.10196561857047     -0.22824027279878      0.03081713910933
  H   4.89434075713943      0.95791202823661     -0.11129109039181
  H   3.63433562721495     -1.16813699098402      0.12569408784710
  H   1.16336801495214     -1.15558925343014      0.10601039800688
