19
Coordinates from ORCA-job opt
  C   1.00437665747122      0.98368010054368     -0.05965499285809
  C   -0.45627460605131      0.97288162483989     -0.03860520587865
  C   1.71586262250867     -0.21024137419902      0.12620904391586
  C   1.72143048810881      2.16754534060947     -0.28162644491563
  C   -1.29987487142529      0.15072632330616      0.69277801377895
  S   -1.37425592356495      2.05676277299688     -1.00589330013697
  C   -2.66496076349467      0.41568745391923      0.46468475952969
  H   -0.92827083898949     -0.59137339709875      1.38835174543807
  C   -2.85850387077859      1.43736422763888     -0.44178904290776
  H   -3.47934673329260     -0.10974542919857      0.94620838144200
  H   -3.79257514517450      1.84403268251873     -0.80067036422093
  C   3.10649365180274     -0.21666396896806      0.09690972187980
  H   1.17017280093163     -1.13731242902331      0.26535576801854
  C   3.81049792815534      0.96413024043489     -0.13433101535518
  H   3.64180318896808     -1.14898581112277      0.23839799710344
  C   3.11206229296411      2.15514316412876     -0.32354143768038
  H   4.89390643238177      0.95617656666367     -0.16553390462088
  H   3.65170303793650      3.07946354683447     -0.49704473715591
  H   1.18395265154253      3.10242836517578     -0.40400398537598
