19
Coordinates from ORCA-job opt
  C   1.00520668751693      0.99681021639661     -0.02523760525163
  C   -0.45459097933731      0.99870105497385      0.03186913434709
  C   1.72768141993221     -0.04734734768118      0.56961674157903
  C   1.71155439305675      2.03233186332525     -0.65273749330609
  C   -1.31631828894782     -0.08757079678158      0.04342565110363
  S   -1.34650409725457      2.46535762885262      0.11080017245215
  C   -2.67407014533537      0.28397437959041      0.10837107692142
  H   -0.96415883932762     -1.10932353613925     -0.02453603557519
  C   -2.84399774431933      1.65238590661533      0.14833754506223
  H   -3.49994894299429     -0.41533895814057      0.11757066855256
  H   -3.76723363975299      2.21046590700775      0.20168261334171
  C   3.11804315856275     -0.05717045557384      0.53089329132693
  H   1.19243364798082     -0.83645909636692      1.08674941581991
  C   3.81178897897431      0.98186508168634     -0.08748583794206
  H   3.66195038778119     -0.87009731391840      0.99903330796878
  C   3.10259027655984      2.02607072245226     -0.67805339313713
  H   4.89545668410259      0.97720694056429     -0.10960564775023
  H   3.63367642009729      2.83505398368950     -1.16714060624843
  H   1.16464162270462      2.83478481944753     -1.13735499926466
