19
Coordinates from ORCA-job opt
  C   1.00539294456353      1.00757104152368     -0.00718837862800
  C   -0.45475042836860      1.00457506634214      0.04165700716487
  C   1.72773498231026     -0.03840621543108      0.58444279965228
  C   1.71152215962156      2.03832239799667     -0.64264225347233
  C   -1.31210850697166     -0.08513072058846      0.04713002328374
  S   -1.35313653468055      2.46740662118697      0.11553492378767
  C   -2.67177135462506      0.28091088372434      0.10348022919697
  H   -0.95579577100099     -1.10554149639805     -0.01936401631445
  C   -2.84755477905119      1.64859933398519      0.14294098975070
  H   -3.49472078850774     -0.42190825931566      0.10665696097674
  H   -3.77315694292067      2.20327901388714      0.19022845208675
  C   3.11750364174501     -0.05742887705978      0.53025271656169
  H   1.19321648759736     -0.82405966040312      1.10759345218386
  C   3.81099401640922      0.97354006762392     -0.10167774944349
  H   3.66108015617571     -0.87299924103742      0.99417471222651
  C   3.10210765952070      2.02289048615605     -0.68348362917401
  H   4.89420882698942      0.96045909307680     -0.13801975267961
  H   3.63266434006935      2.82722300590977     -1.18075469519577
  H   1.16477089112433      2.84240045882088     -1.12476279196413
