19
Coordinates from ORCA-job opt
  C   1.01121026500566      0.81591207186032      0.08822367576058
  C   -0.44813592937464      0.78953617688979      0.14982415251771
  C   1.78993234511331      0.82480493787326      1.25375742300283
  C   1.65847575528283      0.85724030208650     -1.15491186604550
  C   -1.35506176455788      1.36220025651547     -0.72874670158430
  S   -1.27901838861982     -0.02801199166246      1.41263204456598
  C   -2.69724781717972      1.13778560109052     -0.36242675585597
  H   -1.04389574541208      1.94761705788453     -1.58490932901687
  C   -2.81008128698858      0.39236773766672      0.79270959107081
  H   -3.55193216490848      1.51063426978362     -0.91168372128616
  H   -3.71028156759356      0.07335541608167      1.29723457324234
  C   3.17810795157996      0.87681906226371      1.17675580041717
  H   1.30120855860223      0.81621228546761      2.22275167434333
  C   3.81179029992027      0.93368538845346     -0.06317555579400
  H   3.76576794104152      0.88675871366116      2.08793994869474
  C   3.04599657116287      0.92258956830510     -1.22793439320571
  H   4.89309630342712      0.98069630840152     -0.12153529366699
  H   3.53135456296699      0.95446698853217     -2.19707854749545
  H   1.06691411053199      0.81703084884532     -2.06322671966457
