19
Coordinates from ORCA-job opt
  C   1.00454101946575      0.84182780629032     -0.11632503322237
  C   -0.45559172441792      0.80730199252426     -0.08445631103358
  C   1.74585330675504     -0.19765798797162     -0.69501844038387
  C   1.69172464415115      1.92186871494140      0.45576967203859
  C   -1.30623170906752      1.32672825528179      0.87948841100837
  S   -1.36383075077950      0.06997329194874     -1.34323574858795
  C   -2.66839253625126      1.11333436112907      0.58815051182360
  H   -0.94099763755458      1.81367884849641      1.77506177033534
  C   -2.85290277513209      0.43417547766170     -0.59828304230237
  H   -3.48651502919920      1.43306542230314      1.22032103981166
  H   -3.78246764074199      0.13931793708388     -1.06264549007100
  C   3.13653868586378     -0.15766991169547     -0.69925877274188
  H   1.22736834356153     -1.05069261325641     -1.12092284904703
  C   3.81086083536091      0.91322659285273     -0.11559068805029
  H   3.69501284694334     -0.97140697671507     -1.14830779622201
  C   3.08234460025290      1.95216727632449      0.46153067953528
  H   4.89442520964752      0.94027485223910     -0.11446098228647
  H   3.59870925710902      2.79476150759194      0.90789688951393
  H   1.12775105403312      2.74742615296956      0.87648617988205
