19
Coordinates from ORCA-job opt
  C   1.00431760463257      0.98362862049824     -0.06101476867805
  C   -0.45641935792920      0.97248519846613     -0.03962498207020
  C   1.71620049579146     -0.20994295424492      0.12530298230393
  C   1.72113156060529      2.16779929451082     -0.28216774995388
  C   -1.29961588048002      0.14956453195771      0.69140906036361
  S   -1.37516360988208      2.05676808811273     -1.00563007031867
  C   -2.66490417866998      0.41418566795910      0.46389907826524
  H   -0.92770832352897     -0.59294320965890      1.38637508953240
  C   -2.85912617912478      1.43655369451004     -0.44163017371484
  H   -3.47871024961907     -0.11210883558898      0.94549555351095
  H   -3.79306973462636      1.84373804141887     -0.80026425907654
  C   3.10684508033166     -0.21570682144368      0.09754115104484
  H   1.17102730139022     -1.13739950327564      0.26393841899355
  C   3.81059338660706      0.96545558602072     -0.13237194151446
  H   3.64237546989198     -1.14784006049027      0.23958224379676
  C   3.11177672403772      2.15609025913650     -0.32247088807835
  H   4.89406551528737      0.95805311127018     -0.16214336194386
  H   3.65110411247970      3.08075494894206     -0.49520857306830
  H   1.18347926280540      3.10256434189930     -0.40481480939410
