19
Coordinates from ORCA-job opt
  C   1.00535163194679      0.83536541978984     -0.09883698964127
  C   -0.45520992222087      0.80908690162687     -0.07665841677846
  C   1.69634375923297      1.87998855559530      0.53144135941615
  C   1.74273301628496     -0.16471991513274     -0.74770653783871
  C   -1.30870583828865      1.27562596445022      0.91154532777938
  S   -1.36016175157015      0.15556007192180     -1.38298046901361
  C   -2.67032177936707      1.09068378586162      0.59920196269904
  H   -0.94632020218283      1.70533483001134      1.83710098514094
  C   -2.85162934664483      0.48578095710612     -0.62728254526483
  H   -3.49033301912255      1.37838781729217      1.24419912010492
  H   -3.77994203112760      0.22708453367732     -1.11509632174981
  C   3.08674165080922      1.91670576610458      0.51967989022159
  H   1.13528947950614      2.67670223475140      1.00799395125973
  C   3.81113464751732      0.92103969375985     -0.13385158176896
  H   3.60586148094180      2.73309623787233      1.00944381989160
  C   3.13304563245198     -0.11776744325959     -0.76882678356738
  H   4.89441275319868      0.95485867897309     -0.14854768328830
  H   3.68829920096627     -0.89964204465371     -1.27487461362202
  H   1.22160963766840     -0.99147204574778     -1.21974747398003
