19
Coordinates from ORCA-job opt
  C   1.00542441542691      0.83043991090741     -0.09586332495886
  C   -0.45503999741953      0.80244065592945     -0.07477928057335
  C   1.74613508627501     -0.20682882725865     -0.67918778731553
  C   1.69321053471748      1.91344956839625      0.46970304070572
  C   -1.31088317128308      1.32805362444198      0.88123438463578
  S   -1.35652404881531      0.06650950345447     -1.33902345807304
  C   -2.67169270069493      1.12092665259647      0.57927955106270
  H   -0.95107778857939      1.81577696901302      1.77858960180400
  C   -2.84980758216647      0.44003711399907     -0.60720211674871
  H   -3.49342232628352      1.44647515940156      1.20373924059565
  H   -3.77670050327446      0.14902158835324     -1.07926371014548
  C   3.13650183370844     -0.15924442123807     -0.69928980575426
  H   1.22794524815635     -1.06234728729570     -1.10043665977833
  C   3.81147615076642      0.91801784149473     -0.12831165660680
  H   3.69383048626334     -0.97056319413610     -1.15409163778487
  C   3.08368320244693      1.95145388707518      0.45954750552080
  H   4.89473000642409      0.95253579314762     -0.14182479403304
  H   3.59993672067390      2.79779900151113      0.89887129397498
  H   1.13047343365782      2.73774546020691      0.89451061347264
