19
Coordinates from ORCA-job opt
  C   1.01036293779794      0.90164152202442      0.10022407039108
  C   -0.44895187226217      0.89082645924365      0.16701791170095
  C   1.79280960686264      0.46932463133084      1.17990898781748
  C   1.65488110784861      1.35678986270234     -1.05876770924362
  C   -1.35489338726823      0.69364078199576     -0.86404902764825
  S   -1.28125056547032      1.15385583530518      1.64710183809612
  C   -2.69739065673169      0.75144928109961     -0.43951423664771
  H   -1.04333787688243      0.48500066441314     -1.87991404785651
  C   -2.81148030366866      0.99475202432092      0.91358251850043
  H   -3.55127935098287      0.61342688692824     -1.08989450586724
  H   -3.71161512345606      1.09033353906773      1.50289042589480
  C   3.18175342987029      0.49569436094661      1.10291171946223
  H   1.30764564454099      0.09298443732214      2.07482136557168
  C   3.81332306067846      0.94317904538062     -0.05595739670998
  H   3.77166938063159      0.15697324291150      1.94728419728983
  C   3.04363803201047      1.36943662226916     -1.13722583610078
  H   4.89541139921020      0.96039819767108     -0.11595842532126
  H   3.52621434141265      1.72718439228743     -2.03997687580549
  H   1.06069019585859      1.72480721277960     -1.88828397352376
