19
Coordinates from ORCA-job opt
  C   1.00520941093706      1.00534274220699     -0.01112463033397
  C   -0.45474812640061      1.00385928987881      0.04058980152178
  C   1.72788486770280     -0.03984129813310      0.58143689125071
  C   1.71115813161136      2.03635391429990     -0.64633863116432
  C   -1.31291404722938     -0.08525285852701      0.04939406839247
  S   -1.35166514049315      2.46767823623509      0.11396207180885
  C   -2.67220733329913      0.28194945384393      0.10747133378827
  H   -0.95758526771030     -1.10606372290067     -0.01586431069713
  C   -2.84670875718091      1.64986326874517      0.14530045418009
  H   -3.49590612818425     -0.41994581264148      0.11330280250272
  H   -3.77168169252652      2.20553933995328      0.19338615657680
  C   3.11782936929775     -0.05725930159819      0.52923305802222
  H   1.19411658569745     -0.82605812581110      1.10445987630063
  C   3.81119763852711      0.97464707173825     -0.10135682880785
  H   3.66147135736719     -0.87206780476562      0.99438395473375
  C   3.10186650528574      2.02253401053282     -0.68522989148670
  H   4.89447974015245      0.96293909106840     -0.13564114122382
  H   3.63195568791322      2.82743351662474     -1.18206043819819
  H   1.16444719853211      2.84004998924979     -1.12910559716631
