19
Coordinates from ORCA-job opt
  C   1.00546530961788      0.81551284892475     -0.07923622290588
  C   -0.45618303411671      0.77757143416429     -0.04680504963912
  C   1.71085872029326      1.72615162474344      0.72160202596120
  C   1.74094674624666     -0.04852447327592     -0.90364302902709
  C   -1.32963384554168      1.55404940939088      0.70236126509189
  S   -1.34770014708229     -0.33012176972389     -1.01676095390708
  C   -2.68518265296972      1.24348844682704      0.48041824012551
  H   -0.99808296782985      2.32220591356994      1.38848584425652
  C   -2.84887172449102      0.22918019127347     -0.43890364477915
  H   -3.51236350360533      1.73972744938997      0.97103776109588
  H   -3.76820287462394     -0.20942619197858     -0.79808097439110
  C   3.10028282191525      1.76911794296569      0.69700060148563
  H   1.17133587187959      2.40698627341125      1.36954366586381
  C   3.81932456621028      0.90506341108944     -0.12669954119170
  H   3.62322729811196      2.48182867795365      1.32511637496724
  C   3.13061466364406     -0.00402804908347     -0.92682297237732
  H   4.90247588356976      0.93978800453590     -0.14473928543601
  H   3.67621293939038     -0.68271683109870     -1.57292425634785
  H   1.22367492938146     -0.76415531307915     -1.53474884884535
