19
Coordinates from ORCA-job opt
  C   1.00996750271555      0.87341294122399      0.09554111220175
  C   -0.45070419113010      0.84668614257981      0.16094448793671
  C   1.79652078224535      0.65610745033240      1.23621852722172
  C   1.66266984144869      1.11930962196735     -1.12166105955803
  C   -1.37047406704423      1.03948381805593     -0.86073089720513
  S   -1.27765985593898      0.54696736947360      1.64064670484976
  C   -2.70902566324742      0.94265507049196     -0.43384310087904
  H   -1.08385989882422      1.24399722758084     -1.88381068504434
  C   -2.81307955074294      0.67573033357721      0.91472546080431
  H   -3.56606288513076      1.06272808357260     -1.08358528793706
  H   -3.70748571873365      0.55048688725698      1.50710068810640
  C   3.18495849964407      0.68354737603894      1.16297357400713
  H   1.32065702874038      0.46330990876566      2.19237290120428
  C   3.82118495780401      0.92881027354573     -0.05194417860418
  H   3.77073163691098      0.51249025502061      2.05923621186569
  C   3.05096858378425      1.14635224941220     -1.19285567912061
  H   4.90328667145536      0.95018291588773     -0.10901455875362
  H   3.53271276607163      1.33845054581389     -2.14515533675283
  H   1.08289355997201      1.29098952940257     -2.02095888434292
