19
Coordinates from ORCA-job opt
  C   1.01012465455363      0.93227791760000      0.11171761382509
  C   -0.44914507033130      0.90515202675966      0.17340446011111
  C   1.79344460092790      0.49423874068413      1.18850951974522
  C   1.65304478509343      1.37763169410320     -1.05207296664039
  C   -1.34821736717405      0.69191146651616     -0.86028999200217
  S   -1.29065575149066      1.16522559779491      1.64912152876845
  C   -2.69301123239917      0.73405988736000     -0.44110871190040
  H   -1.02903003733497      0.48193343431082     -1.87349723154783
  C   -2.81568022943146      0.98225958817217      0.91022651846922
  H   -3.54260625771944      0.58133853857309     -1.09381816941488
  H   -3.72009826267452      1.06790798897571      1.49448661120360
  C   3.18198019787512      0.49819386677016      1.10094919218256
  H   1.30840533792928      0.12558657994109      2.08666938267340
  C   3.81157499273033      0.92668668336831     -0.06620792599810
  H   3.77334216388038      0.15225648101512      1.94136482986107
  C   3.04114951406653      1.36766920104469     -1.14103337890580
  H   4.89323883901284      0.92275728301746     -0.13551444609760
  H   3.52316831988729      1.71448875209273     -2.04832677509605
  H   1.05716880259883      1.75012227190058     -1.87838105923651
