17
Coordinates from ORCA-job mp2_opt
  O   3.05457212350756     -0.68091861021425     -0.00008806243429
  C   1.03024610576451     -0.01453101583225     -0.00004602939916
  C   -0.43131500612904     -0.01168867509398     -0.00002760097457
  C   -1.14637792791355     -1.21450727861043     -0.00014634442824
  C   -1.11348135888459      1.20849652031825      0.00011975244313
  C   -2.53610244194674     -1.18945475255300     -0.00011580541161
  H   -0.60938686907062     -2.15601670727662     -0.00025792749224
  C   -2.50487060106262      1.22200302724249      0.00014479828499
  H   -0.54658285545745      2.13166515689181      0.00020592451509
  C   -3.22018209251838      0.02628226013865      0.00001592893676
  H   -3.08881058189760     -2.12201373502407     -0.00021350552622
  H   -3.03205101549838      2.16920811803545      0.00024863837595
  H   -4.30404555355591      0.04033573783917      0.00003492522079
  N   1.74560455381146     -1.12505143822431      0.00005582765847
  C   2.99558255500386      0.65867357358988     -0.00008425514612
  H   3.93535276518172      1.18823425887400     -0.00014634927025
  N   1.79128620066578      1.13522555989918     -0.00013591535248
