18
Coordinates from ORCA-job opt
  C   0.97718016957604      1.00007811982709     -0.13065603560802
  C   1.61028076935468      2.32117582548227     -0.19215258274395
  N   1.60138012464142      0.05029526614859      0.58628752994184
  N   -0.23016287749752      0.87949030657941     -0.71242777334182
  N   1.05382164742868      3.39850828344840      0.44512623934677
  C   2.85640628564486      2.71513408685710     -0.65547333217634
  C   1.88538314142324      4.47946784434542      0.35948805409807
  H   0.12296513762832      3.40321241054916      0.83328729001457
  C   3.02010671491475      4.07884088457498     -0.32454278442255
  H   1.61068044797248      5.43118701401035      0.78488058661909
  H   3.86758236418938      4.70571566028771     -0.55324336331282
  H   3.55640688736795      2.07447243619282     -1.16889226939538
  C   0.99138720115878     -1.13712022604242      0.65714427193556
  C   -0.24326636445058     -1.37593903653313      0.06743396555910
  H   1.50628943298315     -1.90814158526008      1.22249854225211
  C   -0.82884651626759     -0.31096437334788     -0.60401359019236
  H   -0.73127091450068     -2.33931414467866      0.14069558206930
  H   -1.80372265156735     -0.40429977244112     -1.07314033064316
