18
Coordinates from ORCA-job opt
  C   0.93352519175775      1.03560881862768     -0.08483173251822
  C   1.54210438329149      2.34570483710817     -0.14091975182640
  N   0.54377155269102      0.60675272276102      1.13209348044946
  N   0.77989287398025      0.36896349370968     -1.24220260784323
  N   1.88630238782169      3.00034354811038      1.00914571731396
  C   1.94326365965369      3.14064849886302     -1.21227779626919
  C   2.47518565640816      4.19193970296679      0.71263001840613
  H   1.67126241306147      2.62988453053617      1.92403818871853
  C   2.52378041589911      4.30361521220642     -0.67097150758536
  H   2.81213385263694      4.86061902139366      1.48861016162878
  H   2.93703285253855      5.13756284322819     -1.21657914607733
  H   1.81841654392889      2.88168678866134     -2.25174541748357
  C   -0.02989909809818     -0.59697932607116      1.18241842193972
  C   -0.23488085177711     -1.36859621459053      0.04624683894259
  H   -0.33725423960919     -0.94430247949043      2.16444464873334
  C   0.19454961223040     -0.82612503721177     -1.15995292725747
  H   -0.70580249349536     -2.34145108544320      0.09730606777758
  H   0.06921628708041     -1.36407587536543     -2.09515265704931
