18
Coordinates from ORCA-job opt
  C   0.93507756041423      1.03496117745970     -0.08657006297588
  C   1.58087781640959      2.32686847488723     -0.14043117532081
  N   0.66312001381013      0.55062121850101      1.14150765797644
  N   0.67318040350116      0.41924470634893     -1.25272896632759
  N   1.79530756093496      3.04349476187929      1.00397911126466
  C   2.05324187847897      3.08830052496287     -1.20726930263062
  C   2.39563518065422      4.22974988166935      0.70932688829521
  H   1.54589599891736      2.68759649397201      1.91593426228704
  C   2.56775899921452      4.28275469282607     -0.66797997050117
  H   2.65166577681399      4.93707937270483      1.48195543829231
  H   3.01620181643519      5.10019530172623     -1.21078092516838
  H   2.01519685910788      2.78805173746652     -2.24242145402428
  C   0.07288253591323     -0.64505794413390      1.19152775496670
  C   -0.24153678151416     -1.36512742498923      0.04659387016953
  H   -0.14888512863277     -1.03260314586190      2.18152805455839
  C   0.08788648376541     -0.77566304993700     -1.16904412997629
  H   -0.71788199913970     -2.33529932538019      0.09829526966258
  H   -0.12302497508421     -1.27336645410183     -2.11112332054784
