18
Coordinates from ORCA-job opt
  C   0.93672980989040      1.02137753774376      0.00806274516974
  C   1.64807128293484      2.30333067006666     -0.03001234892067
  N   1.19804396334476      0.20775750849129      1.04719242392480
  N   0.15124122184905      0.72762229160068     -1.04200049600020
  N   1.37305299432106      3.30729820188308      0.86034763065367
  C   2.51924653522533      2.82002346931315     -0.97719062240776
  C   2.07985983606912      4.43169539808865      0.53839052043405
  H   0.79713580389474      3.19234397341994      1.68012438719919
  C   2.80552119541644      4.15296600616134     -0.60693122558004
  H   2.01263393850938      5.32539781688036      1.13749535115927
  H   3.46442036356655      4.84049216840993     -1.11357561885104
  H   2.89262625799965      2.28001595852411     -1.83334250497631
  C   0.58889531259517     -0.98206552003881      1.04166335192216
  C   -0.23989091679823     -1.38468793936446      0.00274003193465
  H   0.79110021370827     -1.63068143529587      1.88876688474983
  C   -0.42544320098987     -0.47852432751198     -1.03315605126097
  H   -0.71470011228949     -2.35741193855355     -0.00124135880508
  H   -1.05594449924716     -0.71514883981826     -1.88503210034530
