18
Coordinates from ORCA-job opt
  C   0.86635709786203      1.07041275874165      0.05326416599077
  C   1.47318110410598      2.38302875081372      0.04169828777098
  N   -0.47620988473795      1.00301572177796      0.03233225736671
  N   1.71061300792679      0.01980316585338      0.04027547860197
  N   2.80235037423846      2.52997725224293     -0.24401947901520
  C   0.93483837681516      3.65811579318542      0.19861449330348
  C   3.13769787261904      3.84995330218963     -0.25246891403875
  H   3.41754175290772      1.73828508655612     -0.36735490002372
  C   1.98648549673896      4.57732694106475      0.02075170142533
  H   4.14726759178128      4.17169863071612     -0.45259065804291
  H   1.92596725180106      5.65289211264189      0.07949455269861
  H   -0.10150620873790      3.86689318556816      0.41227737569686
  C   -1.00419493096050     -0.22140864370849      0.02946341053600
  C   -0.22511158150507     -1.37309838337938      0.02397173416749
  H   -2.08893930910374     -0.27583383133522      0.02109096717005
  C   1.15163160113270     -1.19177884302705      0.02266172122408
  H   -0.66841466288678     -2.36014181938723      0.01410265723684
  H   1.83304405000276     -2.03734218051435      0.00873614793142
