18
Coordinates from ORCA-job opt
  C   0.95402656000401      1.01004142203034      0.04540004336276
  C   1.60932034421871      2.32820705198911      0.04463560970030
  N   1.46346373444633      0.07290848387730     -0.77180223124797
  N   -0.11760011979499      0.85965443149846      0.84258723496014
  N   1.15212591390539      3.35720991689598     -0.73382426368270
  C   2.74636115770543      2.77582621188815      0.69601529636208
  C   1.95490688929142      4.45503787022075     -0.58563954943307
  H   0.32279567697646      3.31298901342459     -1.30500361504643
  C   2.95934080445834      4.11796294606646      0.30266160990214
  H   1.75112702625081      5.37175907861754     -1.11480219582355
  H   3.75437389985137      4.77077315467176      0.62693250586053
  H   3.34383138927768      2.18686266611625      1.37435100824712
  C   0.86418423983196     -1.12262729390691     -0.75379251513368
  C   -0.23652878331441     -1.38894962895031      0.04982134365234
  H   1.28243939339520     -1.87972401436965     -1.41022838373260
  C   -0.70217833370003     -0.34332253929481      0.83575938128627
  H   -0.71274299573345     -2.36101796670727      0.05719145737531
  H   -1.56664779707022     -0.46178980406776      1.48203726339102
