18
Coordinates from ORCA-job opt
  C   0.87786325717241      1.05284758280957     -0.16552457585770
  C   1.52138658197188      2.36043364594608     -0.22575374306551
  N   -0.39225916079666      1.00378581430466      0.27091325788957
  N   1.66005925943146     -0.01099043444464     -0.43136453554126
  N   2.70994252648399      2.58048755428025      0.41886805569811
  C   1.05017763958885      3.59507389670950     -0.65399301811749
  C   3.03936486069172      3.90346752623383      0.36278739035611
  H   3.29555133550311      1.83696076496357      0.76938486467000
  C   2.01689999121853      4.56062735937266     -0.30380605940298
  H   3.95542914672590      4.27102772907313      0.79655605424583
  H   1.98065749886071      5.61979750321376     -0.50511257261494
  H   0.10885125026940      3.75572010406936     -1.15602832964593
  C   -0.93982636212976     -0.21118971312568      0.36236804834436
  C   -0.23038208857359     -1.37250892856129      0.08272723778037
  H   -1.97297707077501     -0.24767349070554      0.69510548563778
  C   1.09509778892359     -1.21436593174926     -0.29989766949802
  H   -0.68252013106561     -2.35139782536748      0.17606515967727
  H   1.72928267649906     -2.07030115702249     -0.51099405055559
