18
Coordinates from ORCA-job opt
  C   0.91425706673559      1.03400947472542      0.00323337374178
  C   1.47521213060423      2.38554762529548     -0.04451025370711
  N   0.04753731869586      0.76826523575578      0.99787448523745
  N   1.23391930121774      0.20336178932609     -1.00369255294528
  N   2.29183770961510      2.85974180234706      0.94814722036428
  C   1.50060239859409      3.31346080792478     -1.07601442954696
  C   2.78980604664789      4.08480893117941      0.60626125350464
  H   2.41448787419505      2.40462131471018      1.83993069517529
  C   2.30855835842280      4.39207342316488     -0.65548640868644
  H   3.43579833071605      4.63245414735337      1.27335402991262
  H   2.52413252696545      5.29504573248002     -1.20486484932714
  H   0.98777400551387      3.20263541431934     -2.01874557727438
  C   -0.50482770115898     -0.44852029738530      0.99889859606704
  C   -0.24225474941420     -1.38146439588676      0.00433080761263
  H   -1.19095353318479     -0.66565567415469      1.81214554892687
  C   0.64496657918539     -0.99642579298549     -0.99232145140468
  H   -0.70942205545943     -2.35787827727648      0.00318632640627
  H   0.90116739210828     -1.66428126089311     -1.80942781405687
