18
Coordinates from ORCA-job opt
  C   1.00077629985808      1.00378724350120      0.11144552452750
  C   1.64534916971019      2.30327997038357      0.11055123018306
  N   1.74496032037895     -0.06316418639791     -0.22723181563261
  N   -0.32434850996928      0.99553532351547      0.35675311659452
  N   0.95035086002560      3.42142824870778     -0.26329691441069
  C   2.97805995307211      2.67343424088364      0.26288849980758
  C   1.78292747021084      4.49947514356727     -0.30873910962490
  H   -0.05288745693958      3.42589564343380     -0.37861357542774
  C   3.05837547706631      4.05798660120881      0.01518455112776
  H   1.41724507217029      5.47959881101290     -0.57006693515899
  H   3.94131968574106      4.67624326671697      0.05973888767999
  H   3.77934360659497      1.99782331211525      0.51790628200877
  C   1.11328326239791     -1.23838899819868     -0.25240500026613
  C   -0.24692547225133     -1.36240683493330      0.00552607979436
  H   1.71871153048731     -2.10271081993291     -0.50931639814488
  C   -0.93350318893612     -0.19077628172244      0.29601301733471
  H   -0.74819993827294     -2.32066256310125     -0.03306009991408
  H   -2.00223614134437     -0.19457912076017      0.48902265952175
