18
Coordinates from ORCA-job opt
  C   0.93641347216982      1.03319739171696     -0.07043393216303
  C   1.62673225278082      2.30500767744036     -0.11820686360748
  N   0.82057510817853      0.45931525853389      1.14342738762934
  N   0.53093752900999      0.50041248812555     -1.23616683055454
  N   1.67610168537302      3.11054156080797      0.98663661901832
  C   2.19571485589458      3.01058258002162     -1.17507611898938
  C   2.29358189572420      4.28651993769897      0.68359506224823
  H   1.37088214356807      2.80022489618348      1.89805684901586
  C   2.62710929343710      4.24993701692786     -0.66377655321222
  H   2.44518131458416      5.04952448601946      1.43030110492127
  H   3.12434577751572      5.03892124882260     -1.20611696572144
  H   2.27256864859912      2.64632874152557     -2.18732513604983
  C   0.21122317756134     -0.72742165305892      1.18418939774362
  C   -0.24909056093446     -1.36385122929445      0.03891786037899
  H   0.10528726978849     -1.18186778753338      2.16486919180065
  C   -0.05430159653163     -0.69605276196911     -1.16480197935021
  H   -0.73134706058338     -2.33160619638638      0.08109824438954
  H   -0.37931820613552     -1.12791265558204     -2.10688733749769
