18
Coordinates from ORCA-job opt
  C   0.98916790155354      0.99743699780125     -0.15422680804394
  C   1.61955762404094      2.31409500802512     -0.21632318330325
  N   1.66344281624293      0.01515177880024      0.46737656052760
  N   -0.27301969234361      0.91459333909482     -0.61602472247701
  N   1.00995122178775      3.40589227510814      0.34342984978704
  C   2.90736863456222      2.69642781426102     -0.56693427442423
  C   1.84614080290019      4.48433599610128      0.30634583114594
  H   0.04151588491461      3.41815136086650      0.62662530976350
  C   3.04047116632723      4.06707304307827     -0.25874718931274
  H   1.53537942771839      5.44635882050611      0.68090010459368
  H   3.90653931704925      4.68903577592240     -0.42220129631869
  H   3.65192657490482      2.04107343151493     -0.99137268180357
  C   1.04504127697213     -1.16626332475095      0.55160666357532
  C   -0.24576643334025     -1.36760468111506      0.07933703062566
  H   1.59972892121681     -1.96443065856502      1.03600009006055
  C   -0.87788862173788     -0.27019245647356     -0.49011642656325
  H   -0.74008816733030     -2.32646941012717      0.16697235032833
  H   -1.89687065543878     -0.33286711004836     -0.86035020816094
