18
Coordinates from ORCA-job opt
  C   0.96090346902991      1.00533082393439     -0.08630396812440
  C   1.60584689293287      2.32579574600278     -0.14348302178622
  N   1.51630790561408      0.08676301836219      0.72195277225439
  N   -0.16466413676434      0.84348446349486     -0.80363581371633
  N   1.11554597308886      3.39127644266273      0.56288135534430
  C   2.78580864932511      2.73507801713973     -0.74268078295059
  C   1.93198507778029      4.47749151554008      0.40738724475703
  H   0.24615899027618      3.38172973043816      1.07312785704676
  C   2.98386765829751      4.09390427526930     -0.40442767365471
  H   1.70385491839120      5.41991810999247      0.87830510838904
  H   3.79996076420103      4.72766207779590     -0.71384116926137
  H   3.42058960726144      2.10926784377942     -1.35046849866078
  C   0.91502474154328     -1.10686259608224      0.76782881288614
  C   -0.23821422978366     -1.38586980334268      0.04617401828467
  H   1.37240760279828     -1.85053868832071      1.41344917698758
  C   -0.75336493908517     -0.35501550709058     -0.72828450925503
  H   -0.71758784268586     -2.35522723798378      0.09355814515226
  H   -1.66182910222100     -0.48238723159207     -1.30923905369274
