18
Coordinates from ORCA-job opt
  C   0.88340154843679      1.04691505639378     -0.15214607111546
  C   1.53259392338168      2.35737832748956     -0.21295297984924
  N   -0.34683945657575      0.99037392037882      0.38552363912211
  N   1.62423950511305     -0.01049991564193     -0.53294142080806
  N   2.67043891127898      2.60907787188073      0.50734586747335
  C   1.10028163691408      3.56784899096355     -0.73557296889639
  C   3.00665787067183      3.92953148478023      0.41352081886191
  H   3.22633029709298      1.88961030444788      0.94450468141234
  C   2.04011707796115      4.55182417016895     -0.35884736995374
  H   3.88887423280304      4.31766898457877      0.89654431339096
  H   2.02160376185091      5.59974056908481     -0.61403873192406
  H   0.20159612162800      3.70424099346527     -1.31679552615076
  C   -0.90254102298376     -0.22224299104500      0.46841397344341
  C   -0.23608431140429     -1.37560571547302      0.07477087265621
  H   -1.90444382195582     -0.26328879471469      0.88534736188767
  C   1.05421162917187     -1.21329481942678     -0.41184695124517
  H   -0.69331282994011     -2.35306700140318      0.15886511426072
  H   1.65547292655538     -2.06441043592775     -0.71739562256580
