18
Coordinates from ORCA-job opt
  C   0.87042555644242      1.06308934467535     -0.12125793843121
  C   1.48847041140692      2.37286284928177     -0.17219293089052
  N   -0.46023073141457      1.00668869425313      0.06090835092645
  N   1.70537804114070      0.00648626944015     -0.17425024128168
  N   2.77815432647539      2.54753031555470      0.25005641219529
  C   0.96519811719761      3.63317731995723     -0.44653139952620
  C   3.10938874206640      3.86880078474676      0.21483977512155
  H   3.39096900168965      1.77226407639261      0.45842811879881
  C   1.99152985443025      4.57010090532629     -0.21637841001698
  H   4.09229155943395      4.20834731246152      0.49998606783605
  H   1.93520224308209      5.64002868877089     -0.34253943148833
  H   -0.04671640441809      3.82279514493078     -0.76825205616041
  C   -0.99357456755619     -0.21401583496684      0.13453980940645
  C   -0.22582751359241     -1.37129060148626      0.07282113324187
  H   -2.07067880697580     -0.25950813725564      0.26644656898211
  C   1.14471536458416     -1.20051890440580     -0.07186434089245
  H   -0.67165656686274     -2.35446210033265      0.14734798068320
  H   1.81956037287027     -2.05057812734398     -0.10980646850398
