18
Coordinates from ORCA-job opt
  C   0.86762642275032      1.06644248418432     -0.08814264262634
  C   1.47725528038069      2.37780491675156     -0.13325013090218
  N   -0.47296158839872      1.00316949331920     -0.00940504474749
  N   1.71056702431376      0.01484841999954     -0.07006183649741
  N   2.79550445342780      2.54105964923215      0.19251855622562
  C   0.94284908305524      3.64351356442173     -0.36143278362423
  C   3.12963994204262      3.86087363227189      0.15146140296327
  H   3.41060953681775      1.75768441710149      0.36087626057037
  C   1.98745260619480      4.57238574781487     -0.19177870596542
  H   4.13170463348917      4.19351528277286      0.37054430811197
  H   1.92783391799703      5.64408386868874     -0.30072641241578
  H   -0.08693791749343      3.84067984413292     -0.61441747535355
  C   -1.00218105754912     -0.21947210538164      0.05036037189716
  C   -0.22487677946273     -1.37216295314652      0.06342345981450
  H   -2.08583891935454     -0.27084938649557      0.10274395550060
  C   1.15125746609210     -1.19416292578122      0.00943856993650
  H   -0.66873141734291     -2.35729116960919      0.12206118250600
  H   1.83182831304017     -2.04032278027713      0.02808896460641
