18
Coordinates from ORCA-job opt
  C   0.99627282855045      0.99712869082535     -0.15525049750649
  C   1.63051901294261      2.30664339262339     -0.21487309633745
  N   1.70585153621126     -0.01609611357504      0.37030282538474
  N   -0.30015673333359      0.94523726966312     -0.51809047880430
  N   0.97963077516260      3.41509315054554      0.25803330208603
  C   2.94283362052960      2.68012022120322     -0.47965265502456
  C   1.81559570548424      4.49286146062748      0.24825657577476
  H   -0.00880132540105      3.42824856974310      0.46252909648544
  C   3.05084100779902      4.05976486127666     -0.20976612464879
  H   1.47804602384560      5.46620773961529      0.56631190372684
  H   3.92665250089978      4.67863520473219     -0.32671177851730
  H   3.71670987044024      2.01145127920381     -0.82295377454584
  C   1.08082687626007     -1.19315695182906      0.45610482037352
  C   -0.24673466664161     -1.36283354913266      0.08272217119218
  H   1.66198226374302     -2.01613985682088      0.86162515925759
  C   -0.90812317086867     -0.23706563765385     -0.39016166752304
  H   -0.74503640839685     -2.31930126870485      0.17294547614932
  H   -1.95430871722674     -0.27499946234282     -0.67906925752264
