18
Coordinates from ORCA-job opt
  C   0.93639168199668      1.02329185749021      0.00479167438818
  C   1.65391625429693      2.29898241486894     -0.03224138212008
  N   1.14997881775981      0.23430787346803      1.07391549982390
  N   0.20287873433157      0.70273776084107     -1.07468266914103
  N   1.41306607119097      3.28548378647020      0.88749355534931
  C   2.47837211437521      2.83975993182638     -1.00871640857182
  C   2.10309009690563      4.41749618389957      0.55876404359728
  H   0.88289917655544      3.14663837478888      1.73431158659405
  C   2.77889663932695      4.16419953308725     -0.62324432133724
  H   2.06055397716551      5.29870802678737      1.17835323989900
  H   3.41351702640704      4.86414969624955     -1.14379675243211
  H   2.81127795487363      2.31919491186985     -1.89313867294200
  C   0.53771545559929     -0.95346328894325      1.07088294893003
  C   -0.24209381899128     -1.38153932196385      0.00451349530331
  H   0.69863491622745     -1.58085858484420      1.94252908986103
  C   -0.37478537741476     -0.50251862036670     -1.06246665584811
  H   -0.71850611134457     -2.35347517460854      0.00278929029900
  H   -0.96320360926152     -0.76129236092074     -1.93775656165269
