18
Coordinates from ORCA-job opt
  C   0.94827019499810      1.01022140559146     -0.03575397450721
  C   1.61608572045597      2.32189389476132     -0.08500441823335
  N   1.41147483147359      0.12097299384867      0.85890669997833
  N   -0.06839581570740      0.80857312013577     -0.89097788332263
  N   1.19710852492351      3.37372124291218      0.68419716612763
  C   2.69939146246612      2.75897326183347     -0.82837842482992
  C   1.98068692109989      4.47116619968479      0.45285982937583
  H   0.41872142359494      3.33682188339138      1.32348926409993
  C   2.92803586129835      4.11312490541445     -0.48823675884370
  H   1.80483866900011      5.40182929680552      0.96750221719076
  H   3.69625195635228      4.75955987360440     -0.88248860095546
  H   3.25245397372736      2.15680670559310     -1.53237003754313
  C   0.81221118983036     -1.07454892554989      0.87617862896392
  C   -0.23582800052674     -1.39084917094150      0.02215372625700
  H   1.19044000230485     -1.79160261475671      1.59858135767766
  C   -0.64977360588973     -0.39527140827086     -0.85261779983846
  H   -0.71001125171707     -2.36381746330418      0.04085553901431
  H   -1.46936005768450     -0.55577320075338     -1.54659653061153
