18
Coordinates from ORCA-job opt
  C   1.00149080125704      1.00253754065682     -0.06102370327655
  C   1.65733333381158      2.29082324516748     -0.10009199805003
  N   1.77199732091119     -0.08530116249445      0.11331898749045
  N   -0.34264739963174      1.01113072444841     -0.16071561894676
  N   0.93206753927145      3.44244756336525      0.03285137549106
  C   3.00148123025803      2.64844606748472     -0.17527590473695
  C   1.76078594985591      4.52317531131770      0.02205420424947
  H   -0.07731304404504      3.44173631591230      0.07285983485465
  C   3.06154618375911      4.05349474756222     -0.10613744879214
  H   1.37616531235970      5.52679086849011      0.10936070288467
  H   3.94738214202172      4.66829809888459     -0.14170308111624
  H   3.81988260649832      1.95174582577525     -0.26514940560514
  C   1.13568890796186     -1.25620865272945      0.15896477807181
  C   -0.24706853777936     -1.36175152865637      0.05783289249374
  H   1.75895979962090     -2.13581854796707      0.29133602358606
  C   -0.95105025142825     -0.17480578306479     -0.09666461940819
  H   -0.74977766018847     -2.31883401672840      0.10416534967213
  H   -2.03432623451397     -0.16610961742434     -0.17368236886205
