18
Coordinates from ORCA-job opt
  C   0.92859523808061      1.03642398812466     -0.06340962329573
  C   1.49679824756707      2.36828113230478     -0.11832143400046
  N   0.37220689278240      0.66976931562401      1.10792252829839
  N   0.93165465434497      0.31156956208671     -1.19553918696570
  N   2.01684924615776      2.94996346691396      1.00606751556168
  C   1.78894627260597      3.20380635183636     -1.19263283579884
  C   2.58639176674851      4.14816837618921      0.69519064202217
  H   1.88364836654474      2.56389014744416      1.92972884101712
  C   2.45845380864746      4.32988201204524     -0.67518415323230
  H   3.03483762937981      4.76984089840004      1.45355091555493
  H   2.81625700284832      5.18414649280468     -1.22841572466911
  H   1.53745533308710      2.99493813885509     -2.22046002297990
  C   -0.18302319325019     -0.54337946457367      1.14846918828903
  C   -0.22931783908639     -1.37458701331255      0.03688613839862
  H   -0.61603427394833     -0.84422721884347      2.09792793067282
  C   0.34669899036770     -0.88567957328628     -1.12997476746793
  H   -0.69400841178518     -2.35105945721452      0.07604152051223
  H   0.34618926890766     -1.46994715539841     -2.04554847191702
