18
Coordinates from ORCA-job opt
  C   1.00145996776379      1.00322809697948     -0.04315400112367
  C   1.65885693590401      2.29028300986329     -0.07834923569775
  N   1.77499574845124     -0.08951329454635      0.07980130549521
  N   -0.34471214106089      1.01528122197483     -0.10906238517547
  N   0.92974118855368      3.44402924355421      0.00345806719479
  C   3.00442056295151      2.64725077110980     -0.13121256077294
  C   1.75807876367777      4.52486856809255     -0.01125791996371
  H   -0.08011659531982      3.44174006352360      0.02952937534109
  C   3.06201350615396      4.05354055895806     -0.09431722117454
  H   1.37098387891962      5.52999569237153      0.04063862947921
  H   3.94817146092283      4.66826857954142     -0.12240336929688
  H   3.82479778172374      1.94932994462501     -0.18676026486559
  C   1.13815936176134     -1.26021891719548      0.11818402704892
  C   -0.24708876625853     -1.36206965230234      0.05232633972069
  H   1.76341022389685     -2.14339994541952      0.21180137025891
  C   -0.95293341344383     -0.17133000783143     -0.05802438781282
  H   -0.74990594210127     -2.31946492794730      0.08983596799789
  H   -2.03773152249599     -0.16002100535137     -0.10873373665336
