18
Coordinates from ORCA-job opt
  C   0.93288721639255      1.03569583630192     -0.08169209626488
  C   1.53003021238615      2.35159408427324     -0.13797431497858
  N   0.50246315666450      0.62378431106797      1.12732805554032
  N   0.81680364258332      0.35352488771372     -1.23432348815967
  N   1.91791936081159      2.98678768213836      1.00937936493893
  C   1.90552153223004      3.15724226191425     -1.21037532590996
  C   2.50237091126127      4.18014820338468      0.71074356151566
  H   1.71814459097085      2.61259806214984      1.92618530768635
  C   2.50804807418664      4.31041853384532     -0.67195679626988
  H   2.86697889795985      4.83642314011228      1.48479958229895
  H   2.90841471614948      5.14966724284205     -1.21905092459612
  H   1.75046862731277      2.91143742592947     -2.24898953575122
  C   -0.06607200830166     -0.58246732494998      1.17650750000436
  C   -0.23294945057295     -1.36996705653247      0.04497492217868
  H   -0.40352038873586     -0.91736837517127      2.15296497851479
  C   0.23140240574004     -0.84184515156552     -1.15453078803321
  H   -0.70220383570324     -2.34373135846964      0.09437556118508
  H   0.13589333866466     -1.39214240498420     -2.08606456389959
