18
Coordinates from ORCA-job opt
  C   0.86324858357740      1.07059585828969     -0.03508940322779
  C   1.46584194412484      2.38390129656271     -0.06937481271241
  N   -0.47705673682339      0.99694199394745     -0.11106376686261
  N   1.70669376360778      0.02618106325762      0.08511641475933
  N   2.81340713767727      2.53369630004995      0.10596973194560
  C   0.91972850997403      3.65530164513198     -0.23166517904674
  C   3.14981890461573      3.85222363416954      0.05346108140893
  H   3.43040841118315      1.74391862542279      0.23276793376272
  C   1.98268878652879      4.57548429740161     -0.15662989953402
  H   4.17191059638963      4.17621517764699      0.16826299978469
  H   1.91976473228057      5.64902448161152     -0.24321306102866
  H   -0.12815778037284      3.86040023443915     -0.38338393553170
  C   -1.00238482983089     -0.22776839915848     -0.07264239083859
  C   -0.22368456417044     -1.37367044218411      0.04707260028925
  H   -2.08498563166843     -0.28745419541307     -0.13684537516191
  C   1.14989027777642     -1.18578235373152      0.12590493400381
  H   -0.66506369695102     -2.36106144623019      0.07951987168646
  H   1.83053159208136     -2.02634877121366      0.22413225630363
