18
Coordinates from ORCA-job opt
  C   0.86482738233881      1.06928564961586     -0.05287412146313
  C   1.46901718736560      2.38206429098221     -0.09123280931654
  N   -0.47756544119599      0.99911406665677     -0.07750481415048
  N   1.70951779111205      0.02252257022285      0.03355476319336
  N   2.80864829611726      2.53593088091176      0.13491892387409
  C   0.92608469050130      3.65175175416141     -0.27525267936847
  C   3.14445510022780      3.85482232565019      0.08641004910107
  H   3.42491292280333      1.74769516677406      0.27419489518877
  C   1.98407830638174      4.57454155810506     -0.16815548460560
  H   4.16112682314632      4.18151167071209      0.23629761213558
  H   1.92206407369730      5.64753650711352     -0.26189063146969
  H   -0.11686446990358      3.85439200500126     -0.46067892505924
  C   -1.00395512494932     -0.22499285867722     -0.03194404814932
  C   -0.22413795527417     -1.37318975742848      0.05269562707182
  H   -2.08830082507399     -0.28196426133135     -0.05756681479268
  C   1.15169531844072     -1.18847257301131      0.08759389743398
  H   -0.66635736611229     -2.35988581564725      0.09400387736765
  H   1.83335329037711     -2.03086317981146      0.15973068300882
