18
Coordinates from ORCA-job opt
  C   0.94348398250161      1.01345099115098     -0.01379197141900
  C   1.62476636319116      2.31765964447991     -0.05864219203232
  N   1.35368447052129      0.14009429469131      0.92188659925857
  N   -0.01109402455685      0.79054027627193     -0.93281420615556
  N   1.24198825483334      3.36172930910950      0.73964339130375
  C   2.65161174438168      2.77161545558909     -0.86929737695788
  C   2.00626265119642      4.46496561660144      0.47440773548591
  H   0.52140699234785      3.30598338038882      1.44223777597408
  C   2.89504659304453      4.12273327684225     -0.52786873499387
  H   1.85893630578942      5.38879583547705      1.00991421932543
  H   3.63415940595685      4.77804756125048     -0.96113689096316
  H   3.15666763684462      2.18185045150097     -1.61839013780375
  C   0.75327274737397     -1.05498126580415      0.92666363276576
  C   -0.23566941010321     -1.39098371857375      0.01180011823800
  H   1.08536204743484     -1.75716997351976      1.68540944734035
  C   -0.58989306518039     -0.41495068928164     -0.91016106174467
  H   -0.70862584699644     -2.36467330799619      0.01840904380150
  H   -1.35876784858072     -0.59290713817827     -1.65596939142313
