18
Coordinates from ORCA-job opt
  C   0.89108236516164      1.04019009086846     -0.11615363470799
  C   1.53740002575926      2.35769834599093     -0.17545205489862
  N   -0.28776357140183      0.96258593801004      0.52406868103276
  N   1.57311694321504      0.00381851515951     -0.63566493154663
  N   2.62084239780174      2.65104818826558      0.60923048996060
  C   1.16260716166947      3.52848537627711     -0.81529314022037
  C   2.97262631948772      3.96344186051833      0.45809703833357
  H   3.12309338220362      1.96930735727432      1.15665600470256
  C   2.07633861069564      4.53486359444131     -0.42760551800552
  H   3.81705304587412      4.37981188974268      0.98313537832397
  H   2.08632250686350      5.56334065003936     -0.75257451089459
  H   0.31955195899564      3.62726620388691     -1.48129882428533
  C   -0.85155748863615     -0.24818486227013      0.58673103182815
  C   -0.24402459566814     -1.37948091131110      0.05771086938621
  H   -1.81110886312438     -0.30540261213508      1.09185976815232
  C   0.99559893520522     -1.19848790437039     -0.54094783163510
  H   -0.70774162770674     -2.35554173682837      0.12068589250224
  H   1.54916349360462     -2.03295998355947     -0.96088370802822
