18
Coordinates from ORCA-job opt
  C   0.93701505821254      1.03083591376323      0.01715774410775
  C   1.65578105536239      2.29476717057525      0.00501991186421
  N   0.97615466405734      0.30464013472191     -1.11698376963281
  N   0.38367005820166      0.64536168022587      1.17999717370560
  N   1.55156584616740      3.15270811852296     -1.05768637777915
  C   2.33645061866905      2.96700657690524      1.01413539062270
  C   2.19479023331979      4.32343993628534     -0.78283681650248
  H   1.15477233192637      2.88440255445199     -1.94626458359125
  C   2.69488721295659      4.23281071719286      0.50782327328187
  H   2.24645519577955      5.11845281886822     -1.50936820755543
  H   3.25155161663281      5.00312022499510      1.01816528853043
  H   2.53445505252124      2.56571340955264      1.99559491823655
  C   0.35726308956361     -0.87832400434622     -1.08805501923174
  C   -0.25015043750818     -1.36853996482314      0.06070731207550
  H   0.37216930264585     -1.45307306409375     -2.00937165419091
  C   -0.19921071198661     -0.55595660504983      1.18678777835331
  H   -0.73319153456279     -2.33678346004075      0.07957270896150
  H   -0.64182865195860     -0.86878415770694      2.12790592874433
