18
Coordinates from ORCA-job opt
  C   0.92102437101220      1.03622242683493     -0.02293070272122
  C   1.47104617135820      2.38369913087807     -0.07324458652355
  N   0.18878032331457      0.72275859805223      1.06336558115675
  N   1.09799197485372      0.25733104600202     -1.10407301930649
  N   2.16463460136119      2.90405354191313      0.98746283235845
  C   1.62712449558742      3.26190561742530     -1.13917929311768
  C   2.70291572912097      4.11189208940364      0.65201349357136
  H   2.16105405727241      2.49098735273165      1.90832908850360
  C   2.38062443247134      4.35917310533951     -0.67378364063841
  H   3.26465618921577      4.69258222088399      1.36597771099495
  H   2.66645499745136      5.23569756424145     -1.23384836646130
  H   1.23367777652282      3.10222865367472     -2.13080402381884
  C   -0.35857979637635     -0.49539769188989      1.08152115557437
  C   -0.23295933346903     -1.37964733211105      0.01792819567990
  H   -0.93128827261737     -0.75356314761222      1.96736283600326
  C   0.51124350054716     -0.94207214659238     -1.07068554865650
  H   -0.69647385619138     -2.35749357664325      0.03364710998684
  H   0.65067063856501     -1.56856045253186     -1.94675982258550
