18
Coordinates from ORCA-job opt
  C   1.00148315060348      1.00172066122380     -0.07862168465707
  C   1.65518443050995      2.29176667902871     -0.12122092941990
  N   1.76768217014593     -0.07966064360239      0.14707325777209
  N   -0.33971311285183      1.00566147498698     -0.21240758950364
  N   0.93535001019622      3.44011472341208      0.06232963022513
  C   2.99736028591129      2.65047768527395     -0.21905114469413
  C   1.76461370699527      4.52062892309344      0.05522873255805
  H   -0.07326086320230      3.44151842625558      0.11780200546859
  C   3.06091334703715      4.05353639229418     -0.11823754068826
  H   1.38340389706378      5.52186197004779      0.17767401484503
  H   3.94628914224496      4.66849849628185     -0.16174523523398
  H   3.81294175463843      1.95571141007113     -0.34340865581379
  C   1.13213300596415     -1.25089242502392      0.19995327425695
  C   -0.24704251766408     -1.36141557744025      0.06312065292559
  H   1.75256418618676     -2.12578423351392      0.37120658580589
  C   -0.94833211540865     -0.17948668753050     -0.13582218726595
  H   -0.74957545532457     -2.31816147267887      0.11808997877577
  H   -2.02939702304594     -0.17429580217966     -0.23966216535638
