18
Coordinates from ORCA-job mp2_opt
  C   -0.45062946115045      0.02470569168878      0.00000060931389
  C   -1.12984363458714     -1.19882943213385     -0.00021521688043
  C   -1.18924763229577      1.21437353300809      0.00022847556510
  C   -2.52103587540714     -1.22806665095411     -0.00024055528727
  H   -0.55358014910347     -2.11625304026521     -0.00036394619472
  C   -3.25159266411510     -0.04135265464527     -0.00004484914125
  H   -3.03676875110776     -2.18176173987694     -0.00041554299046
  C   -2.57919021824551      1.18032624650127      0.00019485615664
  H   -4.33521744466500     -0.06664328433085     -0.00006998914713
  H   -3.13900068904967      2.10881726635858      0.00037791163840
  H   -0.67842268746100      2.17159341636851      0.00046986662441
  C   2.99225798124222     -0.72748816668512      0.00024535622916
  H   3.89128603020548     -1.32207027682435      0.00046015783099
  C   1.00910717735732      0.04225523298853     -0.00000226156981
  N   1.75926904974131     -1.12883286525151      0.00040083967364
  O   3.15047431650441      0.61724293976764     -0.00015875705559
  C   1.87608126431582      1.10089758866769     -0.00038144125577
  H   1.77163538782147      2.17189319561812     -0.00078651350980
