27
Coordinates from ORCA-job mp2_opt
  C   -0.03209798798527      1.55036313521241      0.42281438246420
  C   -2.18716420031531      0.89070916332207      0.12551673349234
  C   -1.79453990110363     -0.45134673446185     -0.00056993752383
  C   -0.37951666781216     -0.82472293021887      0.06001744064668
  H   -3.82649837706968      2.26512752066415      0.13463847779013
  H   0.70749276350982      2.30819929780396      0.65144559223244
  C   -3.54598371516026      1.22322401799223      0.03003332673412
  C   -2.75046811713756     -1.45015188262136     -0.22843101085208
  C   -4.08823622492001     -1.10570084123312     -0.32053368114605
  C   -4.48755188099817      0.23284944085840     -0.19150707602004
  H   -2.41597823283085     -2.47574641704590     -0.32872299737332
  H   -4.83212903639706     -1.87493163324090     -0.49334925323531
  H   -5.53745201238874      0.49267487075787     -0.26529508756679
  C   1.90486431129666      0.12996701032506      0.17814872874132
  C   2.55001717982345     -1.07324519139078      0.48024753364121
  C   2.63729452771679      1.17405606432608     -0.40339305669027
  C   3.92370107737199     -1.18691435678675      0.28181563903385
  H   1.99412454500528     -1.89653769006051      0.89887286051127
  C   4.00926542275558      1.04698479272779     -0.59161605521295
  H   2.14410362672841      2.07326467101103     -0.74843725241342
  C   4.66227418535637     -0.13323171600914     -0.24728239640486
  H   4.41313000940900     -2.11939726598171      0.53797326022492
  H   4.55953908936496      1.86758574450493     -1.03727274374592
  H   5.72993534983750     -0.23381160980280     -0.40217688476060
  O   0.02719118137990     -1.96209898093153     -0.11282136057017
  N   0.48444672700778      0.26713821608451      0.32296121561168
  N   -1.26893964244476      1.90213630419475      0.35271760239147
