27
Coordinates from ORCA-job mp2_opt
  C   -0.02327866075647      1.56170920147797     -0.36129050680792
  C   -2.18071390496567      0.87262587053032     -0.18550936611186
  C   -1.78664842003084     -0.45238826517804      0.08331498393708
  C   -0.36721189910497     -0.80301417421458      0.12894001587832
  H   -3.83548415164751      2.20597349470490     -0.42866230822096
  H   0.74310511981219      2.31060224180906     -0.54061739671046
  C   -3.54902096009328      1.18145007179760     -0.21989780231913
  C   -2.74530761702988     -1.44735894382876      0.31486348246875
  C   -4.08998689627153     -1.12174569833113      0.27912444665195
  C   -4.49230556870697      0.19532818555263      0.01143056318284
  H   -2.40476075941117     -2.45595368814085      0.51772996616740
  H   -4.83641175674757     -1.88716218308507      0.45762739074365
  H   -5.54759747514738      0.44241538384263     -0.01429333804629
  C   1.88879412072577      0.12573393918680     -0.03208808650207
  C   2.52172185379501     -0.68569825878899     -0.96954697983633
  C   2.61822543859654      0.80050568410553      0.94318503030665
  C   3.90532212363888     -0.82143365874147     -0.92388665557410
  H   1.93077697289183     -1.20604373877314     -1.71364263243627
  C   4.00418452947334      0.66680115329546      0.97464492369278
  H   2.09875086362425      1.41230970582682      1.67287571745588
  C   4.64807033481458     -0.14441283845515      0.04315022762239
  H   4.40514374738239     -1.45301110724356     -1.64896335454374
  H   4.57724659714708      1.19025087803392      1.73102037512799
  H   5.72594392691520     -0.25170074916129      0.07183314049633
  O   0.08561572140894     -1.91731912845870      0.33743986040506
  N   0.47213569742046      0.30519778386805     -0.08587898528959
  N   -1.26887997773321      1.89025683836902     -0.42286471173834
