27
Coordinates from ORCA-job mp2_opt
  C   -0.03064514844513      1.55302153757950     -0.41342640086504
  C   -2.18620933668576      0.88017604397111     -0.16036235834269
  C   -1.78919717630704     -0.45328654726104      0.04276687838107
  C   -0.37145331480786     -0.81582922214589      0.03308099202225
  H   -3.83755866122667      2.23381933606980     -0.28841685515750
  H   0.72162314523087      2.30491105418956     -0.62764599068272
  C   -3.55126206084450      1.20087955465612     -0.12628331552331
  C   -2.74433028108609     -1.44919472566411      0.28596361910356
  C   -4.08691734650571     -1.11414627939958      0.31786032115279
  C   -4.49153059647774      0.21307549063106      0.11074606557336
  H   -2.40404568954690     -2.46566905823526      0.44424302236732
  H   -4.83020395966913     -1.88099738966169      0.50319172297923
  H   -5.54527389571940      0.46643601839974      0.13728390097062
  C   1.89660190272885      0.13455321451094     -0.11938874670026
  C   2.54073286927613     -0.98626261419847     -0.64433264823706
  C   2.62239196058734      1.09691165748460      0.58744704772322
  C   3.92001360420433     -1.10690610634521     -0.50409535723198
  H   1.97283110121745     -1.74011344223844     -1.16988702152453
  C   4.00185470249310      0.96703285228529      0.71537399291505
  H   2.11034313458041      1.92613360468551      1.06133530280641
  C   4.65590236685480     -0.13404120699147      0.16872762492990
  H   4.41962796833499     -1.97309005105014     -0.92199946132976
  H   4.55935860147194      1.71894382700140      1.26169793056211
  H   5.72922622633214     -0.23788262144647      0.27472054463007
  O   0.05839363429738     -1.93802525042482      0.24571279705361
  N   0.47956336271615      0.27989574945707     -0.23603868392131
  N   -1.27305511300395      1.89468457414090     -0.39926492365440
