27
Coordinates from ORCA-job mp2_opt
  C   -0.02840610685810      1.58667853940305      0.27175184681783
  C   -2.18290124211276      0.87687987762346      0.14592712142419
  C   -1.78353650616317     -0.45544588989314     -0.07671177359893
  C   -0.36186805585958     -0.79727295886967     -0.12291697090527
  H   -3.84385303701379      2.20745726551871      0.35987766693073
  H   0.73564201726166      2.34717235653787      0.40807204280113
  C   -3.55291946430713      1.17744162922929      0.18758282941537
  C   -2.73821246384006     -1.46497271253930     -0.25462490399875
  C   -4.08460636354104     -1.14727763318443     -0.21138581658242
  C   -4.49235966198356      0.17672602923000      0.00985619810361
  H   -2.39345118253016     -2.47868019039006     -0.42189590361584
  H   -4.82806594280069     -1.92423346052332     -0.34771404429956
  H   -5.54892810484839      0.41759802517312      0.04173443926306
  C   1.88767531823174      0.13589083665721      0.01598542405073
  C   2.52391428195101     -0.46765879957506      1.09639397540688
  C   2.61085554613623      0.59391509756188     -1.08105486221480
  C   3.90727982044428     -0.61345410897123      1.07405444784245
  H   1.93410607950361     -0.82265029244074      1.93354167299544
  C   3.99635822727060      0.45155655857310     -1.09170581931698
  H   2.08669480191438      1.04864460697018     -1.91457248122907
  C   4.64436987387381     -0.15193115311621     -0.01620120280176
  H   4.41070119182445     -1.08439833289412      1.91025132134782
  H   4.56684155630778      0.80688346139981     -1.94178091710746
  H   5.72210766446494     -0.26406925568202     -0.02741767515775
  O   0.10151307199756     -1.91395107525911     -0.29124552736468
  N   0.46986018995263      0.32293715679464      0.04464737468942
  N   -1.27574250927624      1.90992142266610      0.33002653710461
