27
Coordinates from ORCA-job mp2_opt
  C   -0.02367670014092      1.55207768456256      0.27490108282959
  C   -2.19629669925575      0.89907279966295      0.09718889573741
  C   -1.81456899830626     -0.44607151140751     -0.01370396630849
  C   -0.39866452275625     -0.82129946781170     -0.02663245326247
  H   -3.82679051881854      2.28295368582321      0.15287793096604
  H   0.71734696485741      2.31854737146884      0.45386617956944
  C   -3.55627442302765      1.23704904964849      0.06356289539344
  C   -2.78372626928061     -1.44618308054095     -0.16509301795539
  C   -4.12348544476380     -1.09796073778789     -0.19333264732885
  C   -4.51139487800202      0.24534777340161     -0.08028818644684
  H   -2.45885308536347     -2.47552504740683     -0.25716529144969
  H   -4.87791869538287     -1.86826018159154     -0.30443720716376
  H   -5.56287442923981      0.50760884315793     -0.10598244609986
  C   1.90363855744379      0.09685472138599      0.00894195035858
  C   2.70581858891185      1.19926444292460     -0.31964663084815
  C   2.52816900621779     -1.11337470275316      0.34019558505617
  C   4.08893399074439      1.06974735560819     -0.39170223130148
  H   2.27164113799532      2.14558894344392     -0.60964588179783
  C   3.91335436839689     -1.22746518173038      0.26284821608379
  H   1.93806133507489     -1.95846241655902      0.65301073687386
  C   4.70491042870095     -0.14255791317864     -0.09892075993376
  H   4.68148280516806      1.93134862405127     -0.67656747861781
  H   4.37222114233307     -2.17733259329435      0.51166414042693
  H   5.78252413463770     -0.23918385066133     -0.15516908150595
  O   -0.01277930798169     -1.96134959536149     -0.22954915728080
  N   0.48813830170516      0.26272234076867      0.20720311249103
  N   -1.26097578986764      1.90814464417656      0.24646571151487
