27
Coordinates from ORCA-job mp2_opt
  C   -0.02034091297856      1.54676539573122     -0.31167273035879
  C   -2.19133362356247      0.89499030233695     -0.11689789197760
  C   -1.81058796657572     -0.44909777001677      0.01744589646450
  C   -0.39534388566670     -0.82481648319381      0.02644432039673
  H   -3.82223670194078      2.27755203145821     -0.19143376320276
  H   0.72594901183772      2.30681899384324     -0.50255631623795
  C   -3.55139626005627      1.23347876870612     -0.08306262809859
  C   -2.77965772859130     -1.44538113187144      0.19367198274436
  C   -4.11894395872460     -1.09568314987069      0.22335223798805
  C   -4.50635771066899      0.24549998927658      0.08566502717496
  H   -2.45439529958766     -2.47296968052399      0.30328990319852
  H   -4.87344235717495     -1.86284668471616      0.35439980627394
  H   -5.55750871152869      0.50925344642089      0.11198608181698
  C   1.89947795813896      0.09248959206559     -0.01868463549001
  C   2.68469116292467      1.17960692704477      0.38710391273134
  C   2.53188412627052     -1.09405438492867     -0.41004803998091
  C   4.06824710622603      1.05646177456863      0.46577487825788
  H   2.23077614179989      2.10114061029253      0.72576979776805
  C   3.91673948454599     -1.20267815004651     -0.32467675861207
  H   1.94738751072336     -1.92301505518600     -0.77522143960845
  C   4.69476917861867     -0.13325263586931      0.10834622403657
  H   4.65275176345530      1.90259178021876      0.80796643875581
  H   4.38724763718948     -2.13299922517671     -0.62118015556135
  H   5.77248440172387     -0.22568179766520      0.17067331725111
  O   -0.00096928711515     -1.96083818363685      0.23557674442237
  N   0.48689260543458      0.25876137269317     -0.21769580810497
  N   -1.25790368471720      1.90289734804546     -0.28929440204775
