27
Coordinates from ORCA-job mp2_opt
  C   -0.02329807498270      1.56185005621490      0.36082161501997
  C   -2.18071914440285      0.87264469803755      0.18530832674656
  C   -1.78661754224715     -0.45242412237289     -0.08320628072479
  C   -0.36717049550570     -0.80300443912100     -0.12882380108112
  H   -3.83553356008482      2.20598247039406      0.42824780435006
  H   0.74306770833919      2.31081556427363      0.53991919102207
  C   -3.54904013741219      1.18141970551154      0.21972192826624
  C   -2.74525129448508     -1.44749322937989     -0.31443876192220
  C   -4.08994570417826     -1.12192825831860     -0.27867746891404
  C   -4.49230228343040      0.19519777040896     -0.01128815777811
  H   -2.40467695272475     -2.45612529023485     -0.51706934407433
  H   -4.83634944017403     -1.88742527972583     -0.45692159715592
  H   -5.54760193719942      0.44224738952406      0.01445435397315
  C   1.88880615383011      0.12582350637964      0.03197142096909
  C   2.52174242548357     -0.68536231783857      0.96963634948906
  C   2.61822599678783      0.80032217942607     -0.94349757039798
  C   3.90534290821840     -0.82111567832980      0.92399970751290
  H   1.93080413158617     -1.20550588104517      1.71387739469267
  C   4.00418345958621      0.66659336456842     -0.97494611728404
  H   2.09874127802206      1.41192651368347     -1.67334820442969
  C   4.64807971281329     -0.14436473693139     -0.04323426144190
  H   4.40516786399933     -1.45249462912597      1.64924609697444
  H   4.57723855490890      1.18982451460780     -1.73147690280374
  H   5.72595150624173     -0.25166615998367     -0.07190914881046
  O   0.08569280108679     -1.91733726574888     -0.33709912215219
  N   0.47214702008564      0.30528083932015      0.08573439054138
  N   -1.26890895416184      1.89036871580625      0.42235415941288
