27
Coordinates from ORCA-job mp2_opt
  C   -0.04031556976201      1.61258075331735      0.18677832666394
  C   -2.18842508106533      0.87799370030720      0.10221640023378
  C   -1.77780418388995     -0.45935688780925     -0.06272372631308
  C   -0.35310520525536     -0.78964534162898     -0.09905042446754
  H   -3.86068818025733      2.20113095880107      0.26928327096194
  H   0.71731046884098      2.38566624126943      0.28302375706912
  C   -3.56104931515652      1.16722449042170      0.14075047343156
  C   -2.72387524613737     -1.48472032206285     -0.18816437172066
  C   -4.07294129148966     -1.17798117304813     -0.14870006099840
  C   -4.49210008798043      0.15067563079724      0.01642427745521
  H   -2.37079731020354     -2.50176201107731     -0.31257851458683
  H   -4.80971887113801     -1.96738611544585     -0.24443900124712
  H   -5.55074569727218      0.38259549946854      0.04651780173280
  C   1.88758969404919      0.16290417827043      0.01045058073107
  C   2.60175936692114      0.44199597448088     -1.15044804113270
  C   2.52774865799667     -0.29412888727042      1.15822811570270
  C   3.98524575895554      0.28119354844544     -1.15350379843743
  H   2.07241922179265      0.77595398197068     -2.03604631441173
  C   3.90938645996719     -0.45887358803027      1.14468948787345
  H   1.94230222225063     -0.52052088000896      2.04201412434821
  C   4.63857302351058     -0.16905784404802     -0.00795712615128
  H   4.55014021807844      0.49968796518826     -2.05215762759082
  H   4.41677072851897     -0.81434215821056      2.03392691061586
  H   5.71464132615932     -0.29723497721207     -0.01397204967659
  O   0.12114585140102     -1.90767118232962     -0.22103845158966
  N   0.46803926654214      0.34385773542833      0.02166248422008
  N   -1.29046022537680      1.92748471001573      0.23192949728412
