27
Coordinates from ORCA-job mp2_opt
  C   -0.02867625049874      1.55217067960250     -0.41167750200811
  C   -2.18486907749072      0.87762415889427     -0.17154361430738
  C   -1.78852044664054     -0.45307503356392      0.05360312506419
  C   -0.37058649952477     -0.81399893754804      0.05669776502970
  H   -3.83716566521220      2.22647530951658     -0.33257843825722
  H   0.72753286878990      2.30178080186520     -0.62194382247440
  C   -3.55083689029037      1.19628092753559     -0.15384238219412
  C   -2.74462077593761     -1.44676911107935      0.30192871295970
  C   -4.08773567724897     -1.11305650209089      0.31819643926246
  C   -4.49184995539428      0.21069507310109      0.08900031334252
  H   -2.40427497201019     -2.46060109654190      0.47642303535951
  H   -4.83176903110409     -1.87803122785074      0.50815763567221
  H   -5.54604170329776      0.46320606510711      0.10311659803417
  C   1.89461501159201      0.13264427433858     -0.10116179495502
  C   2.53740409819667     -0.95252865397803     -0.69585230854392
  C   2.62009252480466      1.06308979221282      0.64538055395279
  C   3.91807627664965     -1.07450849825907     -0.57388298185876
  H   1.96507625803242     -1.67952665059874     -1.25476439018544
  C   4.00143064562409      0.93332579209622      0.75479796142213
  H   2.10463651890939      1.86645298097707      1.15923232420922
  C   4.65457313300611     -0.13446898561718      0.14444348354185
  H   4.41915832530287     -1.91334129932656     -1.04269424939165
  H   4.56173020882467      1.65913272950672      1.33263459019943
  H   5.72929927096605     -0.23832705412781      0.23510698156584
  O   0.06396514834554     -1.93330559547452      0.27534889046892
  N   0.47821030422140      0.28269890970093     -0.20856258498361
  N   -1.27201064861518      1.89154615160208     -0.41539434092502
