27
Coordinates from ORCA-job mp2_opt
  C   -0.03240461873677      1.55197218559599     -0.42197144263269
  C   -2.18714713988805      0.88671611867488     -0.13808978582602
  C   -1.79181449049593     -0.45245838543005      0.01569042838315
  C   -0.37543737006446     -0.82117877914899     -0.02622221129578
  H   -3.83211468945637      2.25333914179358     -0.18923807602679
  H   0.71149341516452      2.30785817654296     -0.64617116163722
  C   -3.54862601681277      1.21451044040843     -0.06407325585427
  C   -2.74667816251739     -1.45077885521133      0.24998939250660
  C   -4.08660893056964     -1.11020702382097      0.32070806385494
  C   -4.48899566169626      0.22444071791068      0.16347261649273
  H   -2.40919374979155     -2.47314675014673      0.37147218811792
  H   -4.82969447151419     -1.87907023142129      0.49849309503505
  H   -5.54059353167101      0.48157990071093      0.22068629903093
  C   1.90168277558490      0.13352575187080     -0.16067321056051
  C   2.54793709322524     -1.04572959840275     -0.53976238691155
  C   2.62938830573169      1.15164833515931      0.46715669406894
  C   3.92342550303397     -1.16232333380708     -0.35890448577958
  H   1.98929242670507     -1.84709170443677     -0.99754492002463
  C   4.00388798648753      1.02302947993587      0.63695027334158
  H   2.12723456158180      2.02787200728428      0.85748306980870
  C   4.65889972987553     -0.13352889233479      0.22258785243758
  H   4.41808404987446     -2.07479336925917     -0.67088574237941
  H   4.55527222131007      1.82140731290791      1.11996174944893
  H   5.72844878390722     -0.23588786674783      0.36267733791827
  O   0.04098678537674     -1.95197861292406      0.16561518466718
  N   0.48272249502696      0.27188537003929     -0.29722141911759
  N   -1.27148629967129      1.89995646425692     -0.36955614706645
