27
Coordinates from ORCA-job mp2_opt
  C   -0.03823185500483      1.59839890046851      0.26768718266615
  C   -2.18758551324778      0.87388941131713      0.14032561399173
  C   -1.77892475729778     -0.45682694265618     -0.07518474808518
  C   -0.35488035246171     -0.78957792541256     -0.11699541979860
  H   -3.85764283644316      2.19445111230577      0.34524840924403
  H   0.72032746782495      2.36480315135501      0.40166710329582
  C   -3.55967740068436      1.16557380601689      0.17831389074162
  C   -2.72670856455992     -1.47339856388616     -0.24992534560845
  C   -4.07524051942703     -1.16445373945977     -0.21025612600892
  C   -4.49225166095538      0.15783863841589      0.00406131483643
  H   -2.37523516384513     -2.48565209072644     -0.41192338385494
  H   -4.81319138701000     -1.94708033899362     -0.34407177035393
  H   -5.55045914756721      0.39173248143799      0.03324593906077
  C   1.88800299869355      0.15843800397412      0.02452477611455
  C   2.60712463548090      0.58307405780802     -1.08849373558906
  C   2.52389099227782     -0.44307999395377      1.10616351877940
  C   3.99106186145811      0.42716285164311     -1.10544061286077
  H   2.08138784254847      1.02613464267596     -1.92724898700998
  C   3.90567179479345     -0.60261236032508      1.07759294340398
  H   1.93538686432978     -0.78269885498991      1.95056993732024
  C   4.64007801857174     -0.16519179533205     -0.02427417899372
  H   4.55924244364576      0.75963649473362     -1.96622223213780
  H   4.40950917362443     -1.06911342679626      1.91601771096421
  H   5.71648965959293     -0.28883712874368     -0.04087856093291
  O   0.11597489931346     -1.90366406345525     -0.28071044541605
  N   0.46898328182155      0.33688150919334      0.04912354067743
  N   -1.28776577547261      1.91396116338537      0.32078666555394
