27
Coordinates from ORCA-job mp2_opt
  C   -0.03520848567087      1.61328865910177     -0.09561424534630
  C   -2.18600051673967      0.88315741823191     -0.05545179675205
  C   -1.78054211130882     -0.46254613328792      0.04012115610846
  C   -0.35712753773017     -0.79971042860726      0.06496344016958
  H   -3.85315328482405      2.21898631731452     -0.15908742245852
  H   0.72565363440666      2.38741614452344     -0.14772174392377
  C   -3.55742721677335      1.17873510812159     -0.08430911559311
  C   -2.73024080459330     -1.48989708261781      0.10603488811974
  C   -4.07809092251108     -1.17697012143422      0.07662444311047
  C   -4.49209428527010      0.16002283108841     -0.01910934173323
  H   -2.38075099695648     -2.51317855637969      0.17807214503072
  H   -4.81775253488705     -1.96784485009842      0.12679855577102
  H   -5.54980361187033      0.39679131907792     -0.04190054337060
  C   1.88702582156565      0.14892359595642      0.00182787060767
  C   2.53918613682065     -0.13940351263120     -1.19300037476846
  C   2.59221268606124      0.28302157845298      1.19364127612508
  C   3.92224342459495     -0.29560881701253     -1.19144827589918
  H   1.96152751802131     -0.24663434087764     -2.10412562479496
  C   3.97629049749354      0.12917030327065      1.18600158881028
  H   2.05529395476062      0.49848014572825      2.11071407522805
  C   4.64084091297927     -0.16046569301846     -0.00425670208914
  H   4.43846354534518     -0.52248405020417     -2.11693729393998
  H   4.53390881277994      0.23204854603130      2.10953558418904
  H   5.71767444628596     -0.28205005428401     -0.00683103257344
  O   0.11275500705921     -1.92441721935294      0.13222314953867
  N   0.46779812579965      0.33526871460249      0.00049099807579
  N   -1.28412221483857      1.93504117830462     -0.12530965764184
