27
Coordinates from ORCA-job mp2_opt
  C   -0.03822328812911      1.57004682393598     -0.00091532606396
  C   -2.21678238810630      0.90907292195332     -0.00012164781347
  C   -1.83054260184726     -0.43676520297438     -0.00006709145370
  C   -0.41424010679214     -0.81600759395021     -0.00057418707097
  H   -3.85017969161833      2.29146672500005      0.00024480442137
  H   0.68935865592411      2.36288720762692     -0.00167824798228
  C   -3.57825213676309      1.24208797342101      0.00034082026727
  C   -2.79902623497504     -1.44940883337535      0.00047412881432
  C   -4.14068423625577     -1.10769915920886      0.00095496776256
  C   -4.53242395595340      0.23930828561571      0.00088111440720
  H   -2.47222143446560     -2.48206600924470      0.00050680495452
  H   -4.89435582056423     -1.88689017135983      0.00138028598488
  H   -5.58579107652464      0.49537152559270      0.00123593776578
  C   1.92383612239381      0.11704307117490     -0.00001309343120
  C   2.77242289088768      1.23919027637407      0.00034884427913
  C   2.52306139324765     -1.15245218594187     -0.00004263577605
  C   4.15470749462647      1.09158795054387      0.00079418578880
  H   2.40537605759090      2.25235477800371      0.00071325440124
  C   3.91068053586851     -1.28034514536584      0.00042123135807
  H   1.91275795862129     -2.03707993113873     -0.00042908841799
  C   4.74175357081975     -0.16885167172278      0.00077790142032
  H   4.77027607322976      1.98385042004193      0.00110782386974
  H   4.33344830738081     -2.27846327958560      0.00041798617186
  H   5.81965406390125     -0.27780961755880      0.00110244789316
  O   -0.06078733805603     -1.98542126240263     -0.00087512034020
  N   0.48538197469291      0.28084760532780     -0.00065666403495
  N   -1.27730178913397      1.92271949921760     -0.00074643717545
