27
Coordinates from ORCA-job mp2_opt
  C   -0.02969159043990      1.54954409057561     -0.35471834937028
  C   -2.19286058623657      0.90448483878162     -0.07136340368709
  C   -1.81287963202405     -0.44412620299630     -0.04338701849515
  C   -0.40312823197324     -0.83197042046553     -0.15589213056484
  H   -3.81189627690578      2.29872421215444      0.04117143212341
  H   0.69757865826729      2.31930795339682     -0.56533706139381
  C   -3.54410169466484      1.24871145389623      0.07115348723107
  C   -2.77782574788174     -1.44562662838610      0.12672840904533
  C   -4.10929657541732     -1.09208683753135      0.26696829728484
  C   -4.49435161094060      0.25646964070635      0.24094479463768
  H   -2.45657985198289     -2.47990845612426      0.14693796107860
  H   -4.85987776286157     -1.86334665852788      0.39646362628017
  H   -5.53956950785389      0.52204796658304      0.35100929958731
  C   1.91709656558680      0.11082193662281     -0.17754156175721
  C   2.53940767384912     -1.14437941635865     -0.23320102387540
  C   2.70207352434861      1.22335856734198      0.17380423142931
  C   3.91413992560612     -1.25512767362555     -0.03314693684659
  H   1.96616251238413     -2.02176803741242     -0.47462975326688
  C   4.07277190566034      1.09521233116708      0.36651856873213
  H   2.27146487894195      2.19836553974888      0.34325016738405
  C   4.69452599958804     -0.14480345003254      0.26207337547581
  H   4.36719288253971     -2.23730775855253     -0.10311051292693
  H   4.64639048580549      1.97647135037623      0.62982226856521
  H   5.76199519957586     -0.24226076407282      0.41945748252821
  O   -0.03914844299320     -1.99614520414592     -0.09919207547555
  N   0.48847947435304      0.25946809970872     -0.31667023898842
  N   -1.26175017433090      1.91025952717204     -0.25770033473498
