27
Coordinates from ORCA-job mp2_opt
  C   -0.02369560356374      1.55206736493363     -0.27481549388448
  C   -2.19631323692327      0.89904526621143     -0.09713553739159
  C   -1.81458014437768     -0.44610326151990      0.01368460580490
  C   -0.39867258777169     -0.82133467274815      0.02654108901977
  H   -3.82680593755306      2.28292724709501     -0.15274767605555
  H   0.71732183289476      2.31855222118827     -0.45373684257972
  C   -3.55628979732825      1.23701808429613     -0.06348664146009
  C   -2.78373734981313     -1.44622336561111      0.16502454661802
  C   -4.12349804317030     -1.09800546675890      0.19328498314028
  C   -4.51140980759503      0.24530908129778      0.08031865404523
  H   -2.45886185703662     -2.47557046650145      0.25703137153769
  H   -4.87792994815063     -1.86831137840848      0.30434968012568
  H   -5.56289019629849      0.50756705898026      0.10602834232205
  C   1.90363323241389      0.09683985020245     -0.00896043390251
  C   2.70581206917089      1.19924110667256      0.31967164501080
  C   2.52817304253084     -1.11337794206079     -0.34024253498982
  C   4.08892838362111      1.06973222839209      0.39171390623843
  H   2.27163855457472      2.14555229388387      0.60971990017992
  C   3.91335966550944     -1.22745821926548     -0.26290494131412
  H   1.93807167466583     -1.95846348740116     -0.65307524287310
  C   4.70491315288588     -0.14255804142287      0.09888813731285
  H   4.68146894069116      1.93132998509019      0.67660723786375
  H   4.37222802584924     -2.17731831590494     -0.51174623117515
  H   5.78252782325005     -0.23917906999590      0.15512472588591
  O   -0.01278652328110     -1.96141047347012      0.22930881718707
  N   0.48812709155962      0.26270910099373     -0.20718859360464
  N   -1.26099545675442      1.90812527183185     -0.24636147306158
