27
Coordinates from ORCA-job mp2_opt
  C   -0.01622170506825      1.53976340646313     -0.35863212056806
  C   -2.18446606319383      0.88782560086543     -0.14623716888625
  C   -1.80400741300491     -0.45287006268460      0.03154461730213
  C   -0.38946610128384     -0.82817326862050      0.04195944503543
  H   -3.81796512119019      2.26416194429079     -0.26310440939725
  H   0.73894836473396      2.29014432124634     -0.56127763845780
  C   -3.54553125442889      1.22454439848457     -0.12106193829186
  C   -2.77245563444985     -1.44321327937991      0.24184284638529
  C   -4.11170166316504     -1.09362917526037      0.26413762898587
  C   -4.49944557082337      0.24230035957742      0.08267065092632
  H   -2.44563151665470     -2.46655793754005      0.38288619751271
  H   -4.86562758350287     -1.85608607708756      0.42276620754032
  H   -5.55058957278758      0.50669674956015      0.10274050842435
  C   1.89488360665636      0.09038571731979     -0.03399464103407
  C   2.65347958161768      1.13586987035873      0.50227941601342
  C   2.53643404056616     -1.04906033008632     -0.52821925551556
  C   4.03787885271685      1.02081336368251      0.58430306603346
  H   2.16932355849324      2.00972598443538      0.92003918935719
  C   3.92093694800602     -1.15184121259349     -0.43689412987149
  H   1.95817489818901     -1.84277079571400     -0.97638363767191
  C   4.67890046024764     -0.12144403137395      0.11385388721263
  H   4.61145092971912      1.83006543198555      1.02104491918655
  H   4.40861571316438     -2.04252748370541     -0.81568059329983
  H   5.75677666367564     -0.20923544285096      0.18041559785925
  O   0.01891370160275     -1.95767528093833      0.25940872007018
  N   0.48383860074989      0.25670831115793     -0.21188675856247
  N   -1.25494172058534      1.89386791840774     -0.35259960628853
