27
Coordinates from ORCA-job mp2_opt
  C   -0.02800006399584      1.55825963247771     -0.21496109039475
  C   -2.20285977544323      0.90315301466898     -0.07029956832654
  C   -1.81976136532628     -0.44236650832620      0.01593739545079
  C   -0.40316046405067     -0.81653665134067      0.03958277798132
  H   -3.83388444688262      2.28751635883479     -0.11557546906142
  H   0.70756402862112      2.33340413054056     -0.37049953139236
  C   -3.56335643906958      1.23995335081924     -0.04683394837844
  C   -2.78933481507742     -1.44722737754619      0.13030491645908
  C   -4.12989619581914     -1.10107882710978      0.14701073041560
  C   -4.51896093310299      0.24391173720502      0.06033974075116
  H   -2.46484053858525     -2.47826376302372      0.20332726694818
  H   -4.88453118578208     -1.87509618079960      0.22883711802227
  H   -5.57132246748653      0.50378875417765      0.07737873813940
  C   1.91008796461135      0.10352088715922      0.00514617255779
  C   2.73258914283390      1.21750419563874      0.23686960882029
  C   2.52358181071890     -1.13167880570213     -0.25052210374699
  C   4.11564860304366      1.08030708264764      0.29097399946356
  H   2.32454149507262      2.19118424932654      0.46483076714261
  C   3.90969702370003     -1.25231944599005     -0.19229694488561
  H   1.92544719957200     -1.99405643841713     -0.48934569459497
  C   4.71864040626269     -0.15402064083448      0.07438052429411
  H   4.71827998820497      1.95671608470048      0.50022338361035
  H   4.35314529374542     -2.22315073985306     -0.38189265879297
  H   5.79654761936065     -0.25589446904686      0.11582657676565
  O   -0.02805243033979     -1.96244317970606      0.22970257091430
  N   0.48828434296594      0.26829660878937     -0.17299641124042
  N   -1.26523579775183      1.91418694071001     -0.18573386692198
