27
Coordinates from ORCA-job mp2_opt
  C   -0.03232009920178      1.60314243275165      0.18982300713162
  C   -2.18460724253624      0.88042281389708      0.10607016540337
  C   -1.78153251927238     -0.45840733318772     -0.06524947834696
  C   -0.35870154081566     -0.79601245549938     -0.10561341773370
  H   -3.84940321250792      2.21183808957105      0.28143455447169
  H   0.72967197588585      2.37158852387268      0.28839907579984
  C   -3.55553278583335      1.17687689624004      0.14819309425193
  C   -2.73327757363490     -1.47817343255496     -0.19301911583347
  C   -4.08060217220181     -1.16434387101151     -0.14982870511235
  C   -4.49223708539748      0.16587166275848      0.02134065269316
  H   -2.38579819558428     -2.49656391931273     -0.32202601605104
  H   -4.82183111186077     -1.94933974588719     -0.24728380672458
  H   -5.54954380884389      0.40339579176527      0.05420774809889
  C   1.88735745717719      0.14413885052408      0.00454358338945
  C   2.52662457497614     -0.31715206553970      1.15118678045175
  C   2.60589880501785      0.45366185267037     -1.14587511002628
  C   3.90958646277414     -0.47025548206055      1.14220294071193
  H   1.93915150147782     -0.55839827868986      2.02966680859482
  C   3.99073995756359      0.30456008119024     -1.14426296338271
  H   2.07856671190942      0.79910254374805     -2.02827271372056
  C   4.64212957050294     -0.15725708879031     -0.00227172986437
  H   4.41580588972727     -0.83140116547991      2.02980735700504
  H   4.55850145753738      0.54416871589761     -2.03568136795163
  H   5.71935086774022     -0.27536847201979     -0.00433895259557
  O   0.10960327784200     -1.91611344259546     -0.23219369408087
  N   0.46878706192042      0.33241112821566      0.01741673401198
  N   -1.28068422436178      1.92437236952680      0.23890156940863
