27
Coordinates from ORCA-job mp2_opt
  C   -0.02640793549801      1.55091502528821     -0.40849082321400
  C   -2.18347899631893      0.87567159536441     -0.18030377642297
  C   -1.78851914536164     -0.45287523388943      0.06224204903935
  C   -0.37064424812970     -0.81277245379665      0.07700526219681
  H   -3.83577965401520      2.22108010198586     -0.36721409915518
  H   0.73349231317888      2.29824332319830     -0.61516822453001
  C   -3.54995315698823      1.19297820032993     -0.17595354945794
  C   -2.74586214734541     -1.44486730338912      0.31249915116393
  C   -4.08924706225449     -1.11195678136407      0.31549167588638
  C   -4.49207470688599      0.20929832231357      0.07013318797355
  H   -2.40574663209036     -2.45667776059984      0.49898302524530
  H   -4.83445636382256     -1.87529840105871      0.50740481116121
  H   -5.54644082011037      0.46152165783042      0.07408823861856
  C   1.89281189784024      0.12943307404051     -0.08328317757866
  C   2.53386076028290     -0.91599638289037     -0.74570368960342
  C   2.61922658940537      1.02555290618345      0.70162010079670
  C   3.91571602238996     -1.03904112872897     -0.64160724399986
  H   1.95719982012408     -1.61396270552968     -1.33737005427111
  C   4.00224203005403      0.89664564883091      0.79241314181707
  H   2.10202279791456      1.80149274070464      1.25493673648548
  C   4.65369918501060     -0.13501137433536      0.12082824144770
  H   4.41713784121104     -1.84786237169241     -1.16017733289998
  H   4.56553369223103      1.59462544197944      1.40081369243193
  H   5.72963355250791     -0.23849111330161      0.19646231888287
  O   0.06740311607687     -1.93037905619084      0.29815905497970
  N   0.47685301986084      0.28511266175344     -0.18049522477616
  N   -1.27030276926747      1.88850236696397     -0.42839549221725
