27
Coordinates from ORCA-job mp2_opt
  C   -0.03060373571514      1.55296818961680      0.41371791831879
  C   -2.18618148181940      0.88022485628820      0.16049591235389
  C   -1.78920453492567     -0.45322381784222     -0.04279257281842
  C   -0.37147265890470     -0.81581346768303     -0.03311221928157
  H   -3.83749366818012      2.23390756072987      0.28865114971449
  H   0.72168285692885      2.30480210766093      0.62806951589170
  C   -3.55122300440441      1.20097988596406      0.12639564852843
  C   -2.74436009340677     -1.44906848675141     -0.28616307069098
  C   -4.08693415674086     -1.11396999006005     -0.31807942795120
  C   -4.49151276889896      0.21323861826760     -0.11081217477959
  H   -2.40410213796984     -2.46553298109838     -0.44456490253124
  H   -4.83023712682074     -1.88077088234623     -0.50355519018369
  H   -5.54524563693051      0.46664101304112     -0.13737408732402
  C   1.89660832556251      0.13450523390244      0.11944461766703
  C   2.54073762478676     -0.98639813779372      0.64420412793975
  C   2.62239713234578      1.09696700422299     -0.58725394726469
  C   3.92001465449477     -1.10703661465989      0.50391295445167
  H   1.97283956034872     -1.74032403423911      1.16965398604504
  C   4.00185589068816      0.96709598903610     -0.71522701394417
  H   2.11034796673220      1.92626803003766     -1.06100394599747
  C   4.65590129995371     -0.13407488845570     -0.16877232369145
  H   4.41962725853830     -1.97329387675552      0.92166784710244
  H   4.55935740281574      1.71908802028467     -1.26144225303953
  H   5.72922187032000     -0.23791338147462     -0.27480433876152
  O   0.05833795320792     -1.93800364353562     -0.24585222859876
  N   0.47957352856210      0.27985558146260      0.23613617689102
  N   -1.27300332056841      1.89467011218043      0.39958084195406
