27
Coordinates from ORCA-job mp2_opt
  C   -0.03106603144856      1.54806530703731      0.41753672402812
  C   -2.18733945982566      0.89503892684280      0.11097262090692
  C   -1.79884118054728     -0.44983575351318      0.01526661608047
  C   -0.38582676855924     -0.82907680914637      0.09668213584074
  H   -3.81933085631979      2.27787424946597      0.07576015166140
  H   0.70423327964413      2.30807283309638      0.64865864207553
  C   -3.54293997678223      1.23286187177189     -0.00631947453740
  C   -2.75687012658872     -1.44875130491653     -0.20310774100654
  C   -4.09188297117117     -1.09982223941230     -0.31743083762978
  C   -4.48661081764873      0.24266906246755     -0.21966535020705
  H   -2.42657984406399     -2.47769904978276     -0.27937719955413
  H   -4.83733895493686     -1.86907553005788     -0.48331643369835
  H   -5.53440296035059      0.50554944011359     -0.31044699367666
  C   1.90847513967371      0.12398958214661      0.18937325213724
  C   2.55035181703433     -1.09983339326422      0.41072014556401
  C   2.65013185130952      1.19376765969208     -0.33503849119536
  C   3.92279171200468     -1.21011374974951      0.19939540344345
  H   1.99462894169709     -1.94410640847697      0.78291835014394
  C   4.02012098659568      1.06881799747148     -0.53676526305523
  H   2.17026024748197      2.11681935300641     -0.62975641521900
  C   4.66819292326945     -0.13327740889208     -0.26795291988978
  H   4.40439717003635     -2.16090785920950      0.39636189223406
  H   4.57206464045655      1.91175097643418     -0.93636893982220
  H   5.73442512333109     -0.23139840571059     -0.43372139210707
  O   0.00817308531317     -1.97517507766620     -0.04671235296536
  N   0.48614351348457      0.26198993258762      0.33987904916913
  N   -1.26557348308946      1.90391579766420      0.33255782127893
