27
Coordinates from ORCA-job mp2_opt
  C   -0.02224751811309      1.55076619610444     -0.38860388480851
  C   -2.18096900505730      0.87278825213652     -0.18814106085720
  C   -1.78896264135821     -0.45277731155435      0.07834935377735
  C   -0.37091500712951     -0.80980661326921      0.11573894595095
  H   -3.83226160290616      2.21288699162403     -0.41703374519275
  H   0.74325739769420      2.29579370277205     -0.58501060490310
  C   -3.54805740437582      1.18752746869332     -0.20930717320823
  C   -2.74915419091970     -1.44348266530801      0.32218382673377
  C   -4.09280615352957     -1.11258872828758      0.29915829901759
  C   -4.49283360719359      0.20552343954756      0.03309329473546
  H   -2.41065589026281     -2.45288347801928      0.52426720731243
  H   -4.84030264114960     -1.87481686871585      0.48650481974051
  H   -5.54736606621996      0.45659461284054      0.01739836185493
  C   1.89036616807466      0.12288604632443     -0.04732307932888
  C   2.52452097886845     -0.82673209036776     -0.84488197256746
  C   2.62209406959478      0.93492626558668      0.81708474781670
  C   3.90819784750459     -0.95242392820176     -0.77796152756746
  H   1.93750395875209     -1.45490079433763     -1.50269680922394
  C   4.00774022286418      0.80785977904185      0.86891278994744
  H   2.10544972872162      1.64549430202459      1.45316403634448
  C   4.65248707909624     -0.13556441020550      0.07251505052409
  H   4.40693579748613     -1.68894034298370     -1.39709795400646
  H   4.57915808841866      1.43877129277698      1.53974792060792
  H   5.73027489897114     -0.23767756888944      0.11736506094373
  O   0.07274076687528     -1.92536259551900      0.33676631627773
  N   0.47440190843843      0.29161795585598     -0.12102329102726
  N   -1.26662818314516      1.88493809033009     -0.43678692889381
