27
Coordinates from ORCA-job mp2_opt
  C   -0.03508339005142      1.58313927053850      0.32640765336793
  C   -2.18619150996854      0.87086533450403      0.16691341041809
  C   -1.78074385659842     -0.45506376648195     -0.08084513456155
  C   -0.35795429565330     -0.79276946215295     -0.12308844894127
  H   -3.85278975688075      2.19234185143219      0.39310298257246
  H   0.72529599025554      2.34238677898824      0.48767336229221
  C   -3.55735336527040      1.16709630591904      0.20110126068795
  C   -2.73086747459525     -1.46281074036197     -0.29109712511645
  C   -4.07846568776561     -1.14944101253965     -0.25521394555537
  C   -4.49216827501243      0.16830429102397     -0.00896177062772
  H   -2.38161084458928     -2.47161918795740     -0.47747509118690
  H   -4.81831477443597     -1.92494204382154     -0.41689997169067
  H   -5.54965675701560      0.40584254566439      0.01690057896620
  C   1.88841271287811      0.15129697839954      0.03580213540916
  C   2.61078765007699      0.69797284164713     -1.02084332163651
  C   2.52267907278691     -0.56518769817276      1.04618999091629
  C   3.99511875996837      0.54798874529058     -1.05065896985132
  H   2.08727710213773      1.22907541631265     -1.80845651222286
  C   3.90468476824590     -0.71844500364477      1.00344955642415
  H   1.93341301660174     -0.99734300983082      1.84637198900359
  C   4.64207740035484     -0.15988517837152     -0.04019522780686
  H   4.56464775469743      0.97528824262407     -1.86764202089928
  H   4.40674368807432     -1.27392287692373      1.78690190646097
  H   5.71868385517744     -0.27981916376709     -0.06721297546078
  O   0.10758139894110     -1.90511610068319     -0.31256497937442
  N   0.46997869554050      0.32662488695811      0.07309007914707
  N   -1.28367187789994      1.90158975540691      0.38313458926587
