27
Coordinates from ORCA-job mp2_opt
  C   -0.02221760842603      1.55519610020107      0.37599708559627
  C   -2.18058215151141      0.87220287035001      0.18909475439349
  C   -1.78797397417353     -0.45221076602301     -0.08360144091667
  C   -0.36933674842424     -0.80614707309859     -0.12743708990140
  H   -3.83328753959961      2.20798975958243      0.43269481123787
  H   0.74420860996214      2.30152502515247      0.56470475348039
  C   -3.54827181324658      1.18381532326703      0.22027169963846
  C   -2.74779109122615     -1.44418021181560     -0.32344050549823
  C   -4.09192044730623     -1.11599946834460     -0.29099204339110
  C   -4.49267106340937      0.20059743425347     -0.01861989224942
  H   -2.40857711391491     -2.45246127586372     -0.52996653704742
  H   -4.83916982440982     -1.87912236905666     -0.47568582309789
  H   -5.54756479685170      0.44957927440221      0.00473409705594
  C   1.88952051977325      0.12365734220300      0.03698082523931
  C   2.52125956391155     -0.76355301122449      0.90453233647636
  C   2.62194351656914      0.87449665811564     -0.87945221610400
  C   3.90503034010438     -0.89384582649675      0.85065058601787
  H   1.93072424805531     -1.34350291139893      1.60294842863094
  C   4.00795671244370      0.74465641597995     -0.91842838242875
  H   2.10509109965005      1.54113251065449     -1.56140578197605
  C   4.65050181918448     -0.13939804873499     -0.05488699859184
  H   4.40299683737705     -1.58314273235244      1.52251155932254
  H   4.58170540094323      1.32772703551247     -1.62934193036022
  H   5.72846911354195     -0.24367397278631     -0.08962960711061
  O   0.07866288644355     -1.92069471184049     -0.34491410604495
  N   0.47326834760691      0.29817875592619      0.09980166750601
  N   -1.26714684306710      1.88639587343615      0.43383375012309
