27
Coordinates from ORCA-job mp2_opt
  C   -0.03193759761354      1.55292862360918      0.41757081899864
  C   -2.18695541554514      0.88320348685359      0.14924481031381
  C   -1.79021398309986     -0.45312287373096     -0.02986906497859
  C   -0.37296482450538     -0.81824280675769     -0.00500710202355
  H   -3.83593946699609      2.24282958946094      0.23994967167866
  H   0.71618647869129      2.30689832992683      0.63666479349820
  C   -3.55052168714874      1.20697495171430      0.09590895492681
  C   -2.74485885078712     -1.45060008094844     -0.26858502222637
  C   -4.08639609882225     -1.11324658771572     -0.31902781859990
  C   -4.49049810163483      0.21766272690770     -0.13620881196481
  H   -2.40545843210059     -2.46994727570624     -0.40901650011437
  H   -4.82932206671254     -1.88139993334477     -0.50043744453352
  H   -5.54338021705253      0.47260299833446     -0.17751914294681
  C   1.89896115852510      0.13495611924103      0.13986977008711
  C   2.54450665681635     -1.01707546494404      0.59299248421001
  C   2.62512622643729      1.12630266190329     -0.52804141258938
  C   3.92198784133019     -1.13602599252403      0.43246074191167
  H   1.98143580709708     -1.79550716919094      1.08538628359091
  C   4.00227436444236      0.99676587281553     -0.67663648325393
  H   2.11721768211016      1.97960615029267     -0.96086194029611
  C   4.65716043554696     -0.13385353719633     -0.19546707738684
  H   4.41968635657363     -2.02664182388050      0.79806955708975
  H   4.55656182493814      1.77261825470580     -1.19190384399866
  H   5.72870868293903     -0.23728945939909     -0.31846766164604
  O   0.05092909448311     -1.94420644587280     -0.20900497542625
  N   0.48108202667809      0.27625548669231      0.26651768786158
  N   -1.27292589459016      1.89748919875392      0.38425172781799
