27
Coordinates from ORCA-job mp2_opt
  C   -0.01699712367298      1.53890207879179      0.39371024272562
  C   -2.17966367590135      0.87461526013416      0.18383840352883
  C   -1.79393910311803     -0.45504759901812     -0.06766708131859
  C   -0.37805739587826     -0.82137182520704     -0.09652969977328
  H   -3.82325176090311      2.22787306048259      0.39016103026595
  H   0.74868986147577      2.28129101186452      0.59661513982834
  C   -3.54446095989150      1.19904800348029      0.19247811081538
  C   -2.75855438243927     -1.44108416220918     -0.31322146041838
  C   -4.10013349684171     -1.10109525205583     -0.30341146821665
  C   -4.49380221635036      0.22133228779006     -0.04968119138982
  H   -2.42532561499358     -2.45395778296305     -0.50634445940398
  H   -4.85102276738132     -1.85974265331266     -0.49177633636482
  H   -5.54679657502283      0.47918362887916     -0.04388557075164
  C   1.89093379867717      0.10489866045948      0.04511172894661
  C   2.62395721681811      1.01347545008110     -0.71833524878025
  C   2.53233193408093     -0.91715666653949      0.74317916461737
  C   4.00982951557362      0.89779845264213     -0.78288340061930
  H   2.10964946906518      1.78380470006233     -1.28214325630712
  C   3.91686675201551     -1.02696969606654      0.66570139855801
  H   1.95164495069546     -1.61247768158024      1.33440158348558
  C   4.65930181029943     -0.12154487354406     -0.09113333194313
  H   4.57778533951565      1.60104174302475     -1.38080079001684
  H   4.41780370381783     -1.82139420947479      1.20654104180766
  H   5.73762991605534     -0.21313395990017     -0.14473417850488
  O   0.05415288407831     -1.94055187351963     -0.32189438354973
  N   0.47693476111955      0.27208898562206      0.15222838807727
  N   -1.25918984089358      1.88163191207641      0.42888862470179
