20
Coordinates from ORCA-job mp2_opt
  C   -2.80202992763067     -1.20619557514211     -0.01549912420941
  C   -1.40932514806394     -1.20719326526406     -0.01773826627421
  C   -0.70788276762307      0.00042759744058      0.00061883446563
  C   -1.40981324394032      1.20774156711243      0.02021299186672
  C   -2.80250841630014      1.20611390878881      0.02165830065805
  C   -3.50040039992591     -0.00021931703339      0.00554883632634
  H   -3.34146715614566     -2.14637169070055     -0.03397965913126
  H   -0.86110556789312     -2.14307713733922     -0.04414608455811
  H   -0.86190957377667      2.14416315472112      0.02285723952797
  H   -3.34232840250813      2.14619800919134      0.03149483000803
  H   -4.58429672072358     -0.00044463652748      0.00548281482944
  C   0.77168008366110      0.00061076956850      0.00852774872357
  C   1.48444629815608     -0.02347347481874      1.21051633031716
  C   2.86473543526325     -0.02200021974778      1.13273272598744
  H   0.95688742952052     -0.04200067536620      2.15714961025888
  H   3.49063382688114     -0.03914533023971      2.01693178350889
  C   3.42459857938955      0.00285023224604     -0.14175618943932
  H   4.49890127550261      0.00540685082999     -0.28975766853506
  N   1.37054686440987      0.02404689332024     -1.19635264554837
  N   2.70534253174708      0.02523733896020     -1.27008740878238
