20
Coordinates from ORCA-job opt
  C   -2.91246684869383      0.41559989498100     -0.48162738385840
  C   -1.52489165174307      0.51159367487189     -0.52495855476428
  C   -0.88710542561844      1.65111184263714     -0.02703830255750
  C   -1.64865809727863      2.68206801776649      0.53136836413179
  C   -3.03737697541830      2.58677600174387      0.56519596332275
  C   -3.67051407202062      1.45156197306209      0.06261878600074
  H   -3.40335431866867     -0.47029043041681     -0.86842723858562
  H   -0.92497713339811     -0.28394814273410     -0.95284947583071
  H   -1.15204632173482      3.56809609648928      0.91461989489339
  H   -3.62447801010618      3.39677230475168      0.98306829534887
  H   -4.75144589768709      1.37542572585664      0.09261407936560
  C   0.58516926390786      1.71860657757967     -0.01344147743535
  C   1.28772048009048      1.93016485634487      1.17771184658809
  C   2.66789397714475      1.93417617178383      1.11075023189182
  H   0.75275051810155      2.07443822636673      2.10949123939951
  H   3.28525486871943      2.08914049127609      1.98750460236546
  C   3.24086330007294      1.70731855874356     -0.13802351006745
  H   4.31652186129901      1.69248973526362     -0.27486873507281
  N   1.19896373699460      1.47982065970422     -1.18808100850024
  N   2.53317574603715      1.47807776392821     -1.25062761663566
