20
Coordinates from ORCA-job opt
  C   -2.91315356538668      0.34286749795108     -0.15123692307150
  C   -1.52265238786078      0.42281066732550     -0.14539478534367
  C   -0.89244885579136      1.65460232291256      0.04596740347157
  C   -1.66249308436587      2.80789778529592      0.21129837783119
  C   -3.05237183583837      2.72466034742823      0.20914414080942
  C   -3.67918311765257      1.49289450643201      0.02879872608371
  H   -3.39788895470759     -0.61472042783491     -0.30443149079903
  H   -0.92124052378978     -0.46792548205211     -0.29602960319138
  H   -1.16807313234358      3.76562679159378      0.33471023813587
  H   -3.64616540407832      3.62215215451443      0.34074585104534
  H   -4.76134061393354      1.43034002858196      0.02344880070131
  C   0.58348784025827      1.74762166607965      0.03205322772486
  C   1.33803689291147      1.40300449641906      1.15720268220225
  C   2.71067618469887      1.54314819583657      1.07110137233308
  H   0.84642611177310      1.04186398808374      2.05332250566331
  H   3.36724935505037      1.29869853219785      1.89755777391301
  C   3.22065712304135      2.02553636377815     -0.13114107907667
  H   4.28574514119593      2.16448725033546     -0.28068440312792
  N   1.13414439715936      2.22405367335505     -1.09974506989191
  N   2.46158842965972      2.35938064176598     -1.18168874541286
