20
Coordinates from ORCA-job opt
  C   -2.95090985320882      0.60265321641990      0.79687166055410
  C   -1.56701590859096      0.72433144758944      0.88967157726737
  C   -0.90198263740610      1.73561219159022      0.18954778078087
  C   -1.63680433902156      2.64438669314608     -0.57725311387455
  C   -3.01864354833247      2.51470615247058     -0.67452152894503
  C   -3.67772547673835      1.49466813342447      0.01076624065126
  H   -3.46256585608464     -0.17900375093868      1.34695635804130
  H   -0.99988796530849      0.04372217507813      1.51711851801946
  H   -1.11462638940990      3.44465400643440     -1.08938182883086
  H   -3.58389566005944      3.21445845684936     -1.27967869308659
  H   -4.75508840485885      1.39944009735725     -0.06243312238159
  C   0.55817731638191      1.88924558601567      0.31123547755648
  C   1.42315896388110      0.81421140632551      0.07922621724372
  C   2.77997514273813      1.05374262757890      0.18305053416302
  H   1.02662133002167     -0.16075605634375     -0.18056853244242
  H   3.51526377535359      0.27551598920933      0.01707957588556
  C   3.17017604324303      2.35451450618797      0.49111393898830
  H   4.21556342893899      2.62599231779079      0.58819340021991
  N   0.99969502591272      3.13240356548852      0.58236646198513
  N   2.31151801254845      3.36450223832591      0.67563707820453
