20
Coordinates from ORCA-job opt
  C   -2.90812562018367      0.38968678875655      0.30339135448442
  C   -1.52101806379790      0.49820024364793      0.33659560671338
  C   -0.89803104745940      1.72669832922986      0.08508087447412
  C   -1.69200593526419      2.84644143353339     -0.19379917304919
  C   -3.07771111774037      2.73420595057841     -0.22238855538593
  C   -3.69177546402420      1.50809023515722      0.02862991813520
  H   -3.37602621054875     -0.57045831167158      0.48950525182685
  H   -0.92857185855525     -0.39015413804748      0.52372857601674
  H   -1.20609796449133      3.79465730984699     -0.38749108694539
  H   -3.68128302846407      3.60909392989829     -0.43643897209067
  H   -4.77226629976885      1.42343061330233      0.00515219768421
  C   0.57092387564986      1.86552877632023      0.13426985758311
  C   1.39276801830987      0.93414949200173      0.78146600197709
  C   2.75672018368236      1.14808050454664      0.74787015543108
  H   0.97229307680245      0.08987733214440      1.31303448661145
  H   3.45221273969373      0.47089766903433      1.22904132528941
  C   3.20753747903780      2.28238993936853      0.07917542631295
  H   4.26247428960469      2.52378372259441      0.01165542911590
  N   1.07689531187404      2.94466245613214     -0.49593407724490
  N   2.39208663564318      3.15974072362568     -0.51754559693984
