20
Coordinates from ORCA-job mp2_opt
  C   -2.78204870593362     -1.21820643980512     -0.06149362538506
  C   -1.39218992585019     -1.19003194022315     -0.04448286404372
  C   -0.70746532351243      0.03124609971428      0.02433597153212
  C   -1.45052315378548      1.21793365236779      0.06955799042440
  C   -2.84164669032598      1.18491077432704      0.05412976196953
  C   -3.51413434908648     -0.03285400272118     -0.01461222148369
  H   -3.29643813839829     -2.17102620162981     -0.11566576432846
  H   -0.81657404756392     -2.10590511327200     -0.08353713749738
  H   -0.95627167008563      2.17917429773320      0.13995160301067
  H   -3.39985139067181      2.11341343356057      0.09466447560483
  H   -4.59777005550712     -0.05754863019865     -0.02836515773132
  C   0.77201308026653      0.04253673224484      0.02003810216914
  C   1.52293418043369      1.22220695980162     -0.06600267516232
  C   2.89927652787463      1.11220013281609     -0.06682327833490
  H   1.04706375047236      2.19076293281992     -0.14213619898939
  H   3.53951625110801      1.98385443357729     -0.13068184964609
  C   3.43836939290152     -0.16824982224733      0.00954038421996
  H   4.50912821474308     -0.33850658086534      0.01306672677889
  N   1.36439279019886     -1.16734199240154      0.08050362264465
  N   2.69181126272227     -1.27671572559854      0.07583713424816
