20
Coordinates from ORCA-job opt
  C   -3.07946435951208      1.25196021942651      1.28177987280959
  C   -1.69602924950589      1.32134900793232      1.40324598825001
  C   -0.90265887409779      1.61725423897470      0.28738820710929
  C   -1.52560556845353      1.86141090242626     -0.94270022053934
  C   -2.91085122923742      1.79391409832466     -1.05897695969011
  C   -3.69267418141497      1.48477082840646      0.05162399716004
  H   -3.68182150936264      1.01519534989994      2.15163765278010
  H   -1.21132923214351      1.14605408260381      2.35558917946814
  H   -0.93819062158019      2.13447224413492     -1.81183778498456
  H   -3.37934971434910      1.99138778347542     -2.01655511214241
  H   -4.77157534022289      1.43168062106231     -0.03966540617002
  C   0.56456467812240      1.69815442684807      0.43167350112151
  C   1.43244251733951      1.62990791810883     -0.66562956184209
  C   2.78712035593327      1.74195395849557     -0.42176316116782
  H   1.05675560810205      1.46848522705866     -1.66809063566550
  H   3.51631460482576      1.69598883753711     -1.22174685124558
  C   3.18490716254231      1.90394124097394      0.90205910000330
  H   4.22976209406991      1.99484760220807      1.17724733818075
  N   1.02039537518335      1.85576770759754      1.69062432919408
  N   2.32828848376148      1.95050370450486      1.92909752737060
