20
Coordinates from ORCA-job mp2_opt
  C   -2.78634715893930     -1.16247316580766     -0.33033598074501
  C   -1.39562716330564     -1.15357961452137     -0.32050075381209
  C   -0.70370623720195      0.01857264259492      0.00355457031144
  C   -1.42302624159355      1.17228587566008      0.33492736688878
  C   -2.81481367429046      1.15639146900939      0.33374639820291
  C   -3.49970322863584     -0.00910641784559     -0.00496332662434
  H   -3.31617711632344     -2.07139793593039     -0.59183923403483
  H   -0.82944229334472     -2.04538867914118     -0.56183492873133
  H   -0.89478813591408      2.07438339922050      0.62588231978107
  H   -3.36432483757060      2.05089335994414      0.60413634274052
  H   -4.58361194937792     -0.02027209647075     -0.00921069138623
  C   0.76921761436866      0.02409779842282      0.00413831552767
  C   1.50210127077056      1.14924277084034     -0.39229535731278
  C   2.87975824207996      1.06112722685759     -0.35134903559275
  H   0.99702124653685      2.04231733096162     -0.74087224468854
  H   3.51588348872506      1.88645420079110     -0.64754442023206
  C   3.42580236822901     -0.14769600025941      0.07250065245083
  H   4.49805254765959     -0.29903004214060      0.12800947721155
  N   1.36086769371219     -1.12036380233305      0.39913791948574
  N   2.69161156441562     -1.20849231985249      0.42876561055945
