20
Coordinates from ORCA-job opt
  C   -3.06504536484704      2.71421888957855     -0.29768568644366
  C   -1.68388688653156      2.84312784290392     -0.19736477161277
  C   -0.90394019685776      1.75309416215200      0.20537799115499
  C   -1.52922301561836      0.54011526230234      0.51597147237652
  C   -2.91234852242235      0.41735198354310      0.42015927077750
  C   -3.68321144791647      1.50238186460621      0.00807767306449
  H   -3.66143220530785      3.56145681739117     -0.61703459634718
  H   -1.19272369391198      3.78135392498882     -0.42604428991982
  H   -0.94007760687007     -0.30101038397314      0.86577535464125
  H   -3.38832932015052     -0.52308173359071      0.67401734644811
  H   -4.76022890178147      1.40582364380484     -0.06876574581811
  C   0.56001715937268      1.89374844494559      0.29680003977102
  C   1.42346000533997      0.81706038961685      0.06097847580741
  C   2.78033440180073      1.04783538751035      0.17668055905947
  H   1.03494092021735     -0.15276906578344     -0.22573875392243
  H   3.51015177417214      0.26537842187923      0.00650359122387
  C   3.17907516390089      2.34086377785411      0.50435142986937
  H   4.22556520445693      2.60472383218699      0.60943368392092
  N   1.01356402016069      3.12555801662429      0.60244217898152
  N   2.32433951279405      3.35176752145892      0.70106377696753
