20
Coordinates from ORCA-job opt
  C   -2.92722708885065      0.48900482135260      0.58602288980522
  C   -1.54280561768469      0.61148246244653      0.65896379380616
  C   -0.90327237684636      1.75395887007357      0.16265184606865
  C   -1.67708295137712      2.76887675594390     -0.41454019655419
  C   -3.05971780525999      2.64067609207704     -0.48856237539619
  C   -3.69035992356842      1.50074454149299      0.00771548237079
  H   -3.40946434949950     -0.39659286844964      0.98428392311659
  H   -0.97013879051113     -0.17402594388292      1.13877093114585
  H   -1.17839806662958      3.65063955784125     -0.79735135785870
  H   -3.64721778402643      3.43196627829106     -0.94050194279312
  H   -4.76847867510295      1.40375585259493     -0.05086860391955
  C   0.56552507710350      1.89359758520486      0.21415831523013
  C   1.41904476310377      0.79750083712162      0.39256865785612
  C   2.77693480173984      1.04295387104148      0.44869693324095
  H   1.03012199403910     -0.21082325401431      0.45723686906720
  H   3.49593960041197      0.24352389430169      0.58194950175115
  C   3.19173734730802      2.36452978137268      0.31297664914509
  H   4.24020457311305      2.63956075823879      0.34119100424934
  N   1.03732274609853      3.15042149356618      0.08966577739984
  N   2.34833052643903      3.38725061338567      0.12997190226867
