20
Coordinates from ORCA-job opt
  C   -2.94605597426664      0.54751041676704     -0.72333324345661
  C   -1.55627100354845      0.58283780625462     -0.69664802185123
  C   -0.88849368382225      1.54271400783126      0.07461314288010
  C   -1.64151645657042      2.47515485468895      0.79869895370962
  C   -3.03240625516459      2.43799342465075      0.76660428844505
  C   -3.68990922245783      1.47154291977579      0.00903242796055
  H   -3.45090440838216     -0.20484254060364     -1.31884863340881
  H   -0.97030205563543     -0.12824715832221     -1.26552529061876
  H   -1.14988133587041      3.25477649508995      1.36923335648384
  H   -3.60197217617656      3.17033536957714      1.32759737904521
  H   -4.77331264440595      1.44263422075144     -0.01508094038742
  C   0.58758568325649      1.57623636648540      0.08645015960615
  C   1.31611567392165      2.24292235910130      1.07978133800734
  C   2.69362511846169      2.23403348014138      0.98193579953709
  H   0.81817434070542      2.72656508085971      1.91060908506646
  H   3.32063969793591      2.72701191072565      1.71517320102778
  C   3.25145691788950      1.55130782568035     -0.09494805849496
  H   4.32439649516379      1.49362530815462     -0.24051114297838
  N   1.19514985723636      0.93293007968808     -0.93071114223704
  N   2.52488043172988      0.91195577270240     -1.01912265833597
