20
Coordinates from ORCA-job opt
  C   -2.95775068119910      0.62078477395846      0.82322356190955
  C   -1.57365852899553      0.73942632258479      0.91862789308847
  C   -0.90217101059181      1.72956142286401      0.19532386871851
  C   -1.63011886076843      2.62238812604949     -0.59588482647952
  C   -3.01222363735236      2.49586478476661     -0.69563206220343
  C   -3.67787823600688      1.49584769194662      0.01230769318172
  H   -3.47472290193132     -0.14485656943078      1.39059049092708
  H   -1.01061183418398      0.07156617410495      1.56323513898098
  H   -1.10363747454020      3.40881648686242     -1.12503361388937
  H   -3.57235680451047      3.18313212314190     -1.31956094546694
  H   -4.75533322866524      1.40316807550218     -0.06266126406479
  C   0.55819688121490      1.88333922111543      0.32243835466952
  C   1.42605444148946      0.82345277725511      0.03848161249749
  C   2.78249616712781      1.06373771967528      0.14695603963895
  H   1.03103980675579     -0.14086928743291     -0.26054520733205
  H   3.52035316593228      0.29699915466815     -0.05679770626681
  C   3.16846165526529      2.35100775714139      0.51176305443185
  H   4.21315465661102      2.62220990021902      0.61690643376482
  N   0.99506468674623      3.11534635984939      0.64605224517409
  N   2.30664173760255      3.34807498515849      0.74520823871986
