20
Coordinates from ORCA-job opt
  C   -2.93965945987056      0.57183067910111      0.74894422503324
  C   -1.55612211291238      0.69844519152098      0.83729310992474
  C   -0.90198893545757      1.74635795269264      0.18112484143360
  C   -1.64880515524809      2.68118131380610     -0.54257354186393
  C   -3.03028475453616      2.54658179190960     -0.63520190921392
  C   -3.67814799138702      1.49271493312723      0.00837709904028
  H   -3.44192263366623     -0.23761322539046      1.26655291742231
  H   -0.98291299146598     -0.00429769636883      1.43381274118511
  H   -1.13426058297107      3.50426523181414     -1.02487764653314
  H   -3.60410341928298      3.26751964412088     -1.20650580853143
  H   -4.75535658149758      1.39329381371686     -0.06179172796314
  C   0.55875884102470      1.89842585018684      0.28910675959064
  C   1.41831696400875      0.80244481906619      0.15172795709304
  C   2.77579184189524      1.04039573133123      0.24738231553630
  H   1.01966398652598     -0.18759250821646     -0.03765544600089
  H   3.50581202057374      0.24575267088578      0.15014515302053
  C   3.17423025340434      2.35865034563414      0.45367025519743
  H   4.22096217745336      2.62960743600915      0.53645691241389
  N   1.00936630916386      3.15523970075424      0.46813813742481
  N   2.32166122424564      3.38579632429864      0.55087265579054
