20
Coordinates from ORCA-job opt
  C   -3.08216667718914      2.75046708154470     -0.17182401056578
  C   -1.69817176487335      2.86823230155676     -0.10896485520833
  C   -0.90259420993685      1.74366529159218      0.14745244602157
  C   -1.52691998640573      0.50776672061906      0.35775478322521
  C   -2.91266971921042      0.39489070250102      0.29577907077138
  C   -3.69592369924199      1.51482630316418      0.02727703181330
  H   -3.68454615084968      3.62834694036073     -0.37684853547792
  H   -1.21421443535955      3.82491336393805     -0.25974920780124
  H   -0.94225762179627     -0.37291668661047      0.59604253115198
  H   -3.38014854837020     -0.56861227652145      0.46481191486433
  H   -4.77526405398369      1.42617827904165     -0.02106291071832
  C   0.56639238283454      1.88696145187144      0.22438391034477
  C   1.43381564813115      0.78693553749095      0.22690230263949
  C   2.78839544408590      1.03510328360393      0.32964316115780
  H   1.06081137800528     -0.22425651201350      0.12803228466275
  H   3.51571590851266      0.23213350273623      0.33613792357761
  C   3.18853820839233      2.36515231192492      0.41503750582077
  H   4.23343840135355      2.64366456211766      0.49439360409820
  N   1.02571741163995      3.15160467295340      0.31118773487583
  N   2.33305308426151      3.39394616812856      0.39861331474659
