20
Coordinates from ORCA-job mp2_opt
  C   -2.83419471455145     -1.17943070259882     -0.15781077736477
  C   -1.44279108662634     -1.20753043578149     -0.16228206748089
  C   -0.70641798176804     -0.02800876763999      0.00640498797352
  C   -1.39275368015550      1.18436772547542      0.15501690038170
  C   -2.78300219069239      1.20733900954429      0.16228891512277
  C   -3.50987633422356      0.02733680010162      0.00928559549095
  H   -3.39024260143282     -2.10012530791498     -0.29364521247699
  H   -0.93787016379566     -2.15253654619778     -0.32580473060911
  H   -0.81976932825402      2.09577469887554      0.27036187001980
  H   -3.30201358108320      2.15095111467177      0.28719971042248
  H   -4.59367750614433      0.04861904347462      0.01411205902872
  C   0.77070273151699     -0.03850983021700     -0.00804337059923
  C   1.51592042347675     -1.20742014585037      0.19424058239326
  C   2.89265793922603     -1.10505105172193      0.16705566575526
  H   1.03061691145050     -2.15544531325595      0.38788338189331
  H   3.53165493847788     -1.96705355224222      0.31642784194069
  C   3.43413077188313      0.15979264103362     -0.04303995217943
  H   4.50532803772042      0.32448336748541     -0.07436275457792
  N   1.36335166920860      1.15870005100800     -0.18906570556551
  N   2.69173174576700      1.26122120175023     -0.20573793956863
