20
Coordinates from ORCA-job mp2_opt
  C   -2.80206115505392     -1.20613196071095      0.01535788123875
  C   -1.40935564874062     -1.20716852634678      0.01757586688988
  C   -0.70788650752328      0.00044126223771     -0.00063176786802
  C   -1.40978802661892      1.20777472776334     -0.02005374162903
  C   -2.80248358154564      1.20618500885988     -0.02148078198984
  C   -3.50040337891000     -0.00013429164799     -0.00552177682157
  H   -3.34153925974540     -2.14628672478860      0.03372955121861
  H   -0.86115319587747     -2.14306539803068      0.04385265020288
  H   -0.86185421461346      2.14417900852784     -0.02258386530223
  H   -3.34228008107308      2.14628347941934     -0.03119178946012
  H   -4.58429939336123     -0.00033939755641     -0.00543806937738
  C   0.77167534206162      0.00059618715485     -0.00855940558413
  C   1.48442667880712     -0.02331920932377     -1.21055927791129
  C   2.86471697844881     -0.02186889962864     -1.13279391665280
  H   0.95686701624927     -0.04169753678180     -2.15719472436906
  H   3.49060704558775     -0.03889178985243     -2.01700099696432
  C   3.42459643482314      0.00278915127267      0.14169158775831
  H   4.49890047074996      0.00531822776836      0.28967685308541
  N   1.37055861675836      0.02384610637574      1.19631619437844
  N   2.70535485957696      0.02501257528831      1.27003452915753
