20
Coordinates from ORCA-job mp2_opt
  C   -2.80902521480564     -1.04374394613051     -0.57564850284633
  C   -1.41723039215222     -1.04818672858523     -0.59678534655302
  C   -0.70564811765313      0.01616842084435     -0.03836858125063
  C   -1.39652262803118      1.06616731865832      0.57189509275595
  C   -2.78891418662819      1.06361837302328      0.59997803064715
  C   -3.49660791714244      0.01130241883486      0.02230383242395
  H   -3.35754051968451     -1.86756067276599     -1.01792848293834
  H   -0.87386959001427     -1.87472370163027     -1.04180152874620
  H   -0.84043188204815      1.87729984948276      1.03118801312058
  H   -3.32030550546622      1.87717205804638      1.08058985918213
  H   -4.58026498082909      0.01020466741115      0.04342810540587
  C   0.77130281736026      0.00136993020503     -0.03419981695830
  C   1.50527854161228      0.94157885867874     -0.76355265791292
  C   2.88350791814100      0.87693699144631     -0.68111908207128
  H   0.99480527004310      1.67855983026147     -1.37308323690827
  H   3.52478369194982      1.56408638030447     -1.22005274797945
  C   3.42098020875302     -0.12085839570262      0.12781610392228
  H   4.49234895906160     -0.23970329196460      0.24593226834127
  N   1.34949857864192     -0.93712847192330      0.73868469546551
  N   2.68225694889204     -1.00112488849460      0.81419698290005
