20
Coordinates from ORCA-job opt
  C   -2.90409884107362      1.04792228477137     -1.06908603822159
  C   -1.51671830343205      1.00202925219930     -0.96625262876956
  C   -0.88815525702793      1.42673779610347      0.20688470209634
  C   -1.65710316272138      1.91956997438542      1.26470852962155
  C   -3.04546716310499      1.95714825925227      1.16201163860101
  C   -3.67002193237288      1.52469883604767     -0.00627796848113
  H   -3.38795667749147      0.71546733480170     -1.98053911760878
  H   -0.91259818930390      0.62509946382756     -1.78443276321759
  H   -1.16573831742983      2.25260252056867      2.17356724548043
  H   -3.63870047237814      2.32452096478816      1.99178391197360
  H   -4.75047940725505      1.55711174171635     -0.08764076814444
  C   0.58571311048125      1.44134972226826      0.28527615645804
  C   1.28883092813293      2.64743916712414      0.36754350847895
  C   2.66907098579039      2.57944464898167      0.38807312256451
  H   0.75333195686087      3.58916158982717      0.40865610309518
  H   3.28770410949342      3.46681383789246      0.44917752119225
  C   3.23999975539033      1.31194682102651      0.30784832793239
  H   4.31540187033015      1.17239477662307      0.31680083899228
  N   1.19666374331024      0.24593360688907      0.18492054082103
  N   2.53132126380165      0.18160840090570      0.20197713713553
