20
Coordinates from ORCA-job opt
  C   -2.90045570054428      0.37416553528471      0.24394108895442
  C   -1.51311827333310      0.48286746902184      0.26947891863247
  C   -0.89663257385881      1.72487001408845      0.07795695268173
  C   -1.69125569046624      2.85601485959713     -0.14278902668703
  C   -3.07728069467667      2.74371620986831     -0.16206628660440
  C   -3.68662028739951      1.50495739500713      0.03334389679443
  H   -3.36681381435311     -0.59476536167706      0.38217588669714
  H   -0.91133730605463     -0.40943539309431      0.40413390863894
  H   -1.20679772046542      3.81241153402188     -0.29805412270027
  H   -3.68464610480086      3.62642172616461     -0.32768497357900
  H   -4.76723022498303      1.42031030834042      0.01583375771526
  C   0.57130898368939      1.85631178235004      0.11101435250121
  C   1.37978323871175      0.98272786036336      0.84859565643362
  C   2.74563283377767      1.18299781788805      0.80471259809046
  H   0.94285837985280      0.19588702516153      1.45132694786975
  H   3.43396453863929      0.54973257956348      1.35152059418783
  C   3.20750549904668      2.24991052356955      0.03897694489090
  H   4.26462337199528      2.47691125327418     -0.04319031216197
  N   1.08489992156299      2.87536394873944     -0.60635547097660
  N   2.40261062365980      3.07762391246727     -0.63787131137890
