20
Coordinates from ORCA-job mp2_opt
  C   -2.79345803565698     -1.13250727437789     -0.40077176973179
  C   -1.40249338673849     -1.12873219296080     -0.40723947108727
  C   -0.70364815886948      0.01898127121632     -0.02027028242193
  C   -1.41155482129211      1.14880340158362      0.40281733326562
  C   -2.80352549525133      1.13774053021994      0.41804411086344
  C   -3.49675833329338     -0.00058859538626      0.01057737697361
  H   -3.33089940401243     -2.02092596613201     -0.71226163123074
  H   -0.84340956991180     -2.00694416992835     -0.70911102986956
  H   -0.87107933517942      2.02687293231759      0.74195996648075
  H   -3.34648500651941      2.01279499574460      0.75663207269574
  H   -4.58064100731215     -0.00806659719397      0.02003783826483
  C   0.76907512180709      0.01629263812235     -0.01685565385389
  C   1.50324291792217      1.10892503414401     -0.49229035431025
  C   2.88075469767812      1.02653122708960     -0.43106968023028
  H   0.99613474288313      1.97078134237789     -0.91058439267103
  H   3.52007033075102      1.82636964173961     -0.78476062998225
  C   3.42214435345249     -0.14383945049130      0.09480761000174
  H   4.49391059179507     -0.28890690138531      0.17255695008603
  N   1.35415769090084     -1.08867745742576      0.48469118766135
  N   2.68552810684706     -1.17191840927389      0.53285644909587
