20
Coordinates from ORCA-job opt
  C   -2.93035257077775      0.53738190475437      0.68859949454671
  C   -1.54690075963467      0.66641472871074      0.77147412878182
  C   -0.90237291406530      1.75527452408613      0.17385242762296
  C   -1.66200476881080      2.72035345668248     -0.49638619785967
  C   -3.04347932991769      2.58395094366393     -0.58269643026694
  C   -3.68108840210899      1.49297961541159      0.00686434862043
  H   -3.42258641623539     -0.30382087988037      1.16345715259502
  H   -0.97066229701533     -0.06547258943859      1.32797550212452
  H   -1.15566693567195      3.56829755610520     -0.94216768501602
  H   -3.62506078420476      3.33106974621178     -1.11092654136726
  H   -4.75833339003771      1.39129371896306     -0.05944946847662
  C   0.56069457328427      1.90297512401727      0.25943297312973
  C   1.41554592342364      0.79442251158449      0.24152187009158
  C   2.77347553106190      1.03300869823121      0.32540422871168
  H   1.01797427338802     -0.20870600977329      0.14241663258803
  H   3.49796394791573      0.22750219243712      0.31491115295975
  C   3.18050733121480      2.36220636727650      0.40395512471753
  H   4.22836540799941      2.63370653507686      0.46808148698377
  N   1.02137874323471      3.16765335968880      0.32517470193751
  N   2.33360183695788      3.39850749619071      0.39350709757546
