20
Coordinates from ORCA-job opt
  C   -2.92699025737648      0.50218002522832      0.61640202657217
  C   -1.54295944233125      0.62755757563818      0.69252027406317
  C   -0.90305437474498      1.75622641997761      0.16663875032304
  C   -1.67350602713307      2.75655427617297     -0.43878152774337
  C   -3.05568836900353      2.62496414473192     -0.51670750429706
  C   -3.68736385146569      1.49786286020306      0.00710756406793
  H   -3.41142114700828     -0.37150759640797      1.03763147199305
  H   -0.96868889336716     -0.14186540781261      1.19658673317795
  H   -1.17311498458678      3.62912162608199     -0.84049761808274
  H   -3.64212295300126      3.40337183934938     -0.99177994089584
  H   -4.76514164134838      1.39865371018316     -0.05402901223099
  C   0.56403350313210      1.89795481793638      0.22628012267986
  C   1.41740842275289      0.79423994954315      0.34801578497633
  C   2.77534660342347      1.03747273173863      0.41331585157600
  H   1.02557314759748     -0.21522564005778      0.36280294573810
  H   3.49564164404263      0.23334707257287      0.50484010693461
  C   3.18847410940537      2.36469882699461      0.34025051718657
  H   4.23686923845750      2.63870679828879      0.37947678491535
  N   1.03313260451837      3.15994176356728      0.15808162382796
  N   2.34457166803707      3.39474320607005      0.20684604521792
