20
Coordinates from ORCA-job opt
  C   -2.89672284799089      0.35582091999223      0.14860857693400
  C   -1.50870808367157      0.46002775485772      0.16748062922625
  C   -0.89513625433939      1.71390199341335      0.07555479902551
  C   -1.68517642864355      2.86023115253268     -0.05787491503833
  C   -3.07199326916392      2.75253315991469     -0.06846515703942
  C   -3.68072265441162      1.50229860063556      0.03586799638236
  H   -3.36557179531248     -0.61971356474452      0.21107351635348
  H   -0.89867458025501     -0.43555719089922      0.22923722507352
  H   -1.19906424162523      3.82432057960316     -0.15186736241811
  H   -3.68008684409456      3.64525049989345     -0.16171618350637
  H   -4.76168420037771      1.42138400997252      0.02296360578146
  C   0.57283600152948      1.83014589499808      0.07829836539043
  C   1.36548047559596      1.06705341238404      0.94354452152390
  C   2.73322072378699      1.25238508862280      0.88659491043998
  H   0.90893845180238      0.37316037753472      1.63983671775369
  H   3.41347632321689      0.70162894404874      1.52515349399329
  C   3.20690475543172      2.19995038671647     -0.01714333258638
  H   4.26621719654295      2.40764096968435     -0.12013669541120
  N   1.09333716433231      2.74514003070101     -0.76250553912115
  N   2.41413010764724      2.93139698013817     -0.80950617275690
