20
Coordinates from ORCA-job opt
  C   -3.00721752575365      2.60170637864462     -0.52470278754062
  C   -1.63190378354906      2.73682552585328     -0.35809424720333
  C   -0.90981662457203      1.75232336905060      0.32092585255537
  C   -1.57098878621964      0.62206861705874      0.80932794914773
  C   -2.94825425112768      0.49318603269236      0.64796320493275
  C   -3.66707613537745      1.48113430392287     -0.02228830871515
  H   -3.56406445986218      3.36905008822090     -1.05053239334600
  H   -1.11071291417441      3.60883758117381     -0.73810743804006
  H   -1.00673126703793     -0.14322099380078      1.33308438647303
  H   -3.45929524597867     -0.37735645724288      1.04344189468303
  H   -4.73858265448241      1.37927813085365     -0.15096775496289
  C   0.55743924074392      1.86600791359583      0.43435337566004
  C   1.40077480890363      0.96398640133918     -0.22210695208062
  C   2.76300965128527      1.16658331718714     -0.10645351794151
  H   0.98230812623764      0.14621239863707     -0.79779989684947
  H   3.48403655069027      0.51451935200372     -0.58478166921074
  C   3.17656775218803      2.26508323721201      0.64268828415862
  H   4.22743452884233      2.49434046070696      0.78112512653417
  N   1.01838671758696      2.92594470314503      1.12458357270482
  N   2.33568527165706      3.12248963974584      1.23334131904080
