20
Coordinates from ORCA-job opt
  C   -3.06050319260551      1.13853295760750      1.24537949980558
  C   -1.68024081992349      1.24870512350199      1.37704689189866
  C   -0.90465722953897      1.68130149834078      0.29584086553621
  C   -1.53081571561619      2.00738812664601     -0.91236813538897
  C   -2.91309561854352      1.90239063512519     -1.03763500303820
  C   -3.68038994116926      1.46270183241528      0.03918129417095
  H   -3.65466061467653      0.79665955975459      2.08535224635484
  H   -1.18727208802669      1.00635583898398      2.31107046854413
  H   -0.94160640970448      2.37586166939506     -1.74570653687799
  H   -3.39127138493208      2.16946246637056     -1.97327948671495
  H   -4.75664892278377      1.37820918838085     -0.05941881669179
  C   0.55880104803902      1.77445545088816      0.43511378097034
  C   1.42052090924677      1.48864363920902     -0.63057995111677
  C   2.77818623187915      1.60130364203521     -0.40249994863570
  H   1.02799483237295      1.16921483145860     -1.58869041535474
  H   3.50771982210490      1.39409850918799     -1.17624567867925
  C   3.17780839106344      1.97501063288765      0.87782392105466
  H   4.22489096388134      2.08128760746154      1.13889365101592
  N   1.01227517176240      2.12045350808772      1.65606088375730
  N   2.32396556717051      2.21696328226231      1.87966046938978
