20
Coordinates from ORCA-job mp2_opt
  C   -2.80086852288635     -1.09721224153573     -0.47252390934847
  C   -1.40962079986229     -1.09821356802113     -0.48865679161701
  C   -0.70393139763964      0.01926515889367     -0.03392631821807
  C   -1.40220388172162      1.11925493836536      0.47323858396926
  C   -2.79431978767649      1.11273429220046      0.49828578662867
  C   -3.49534252057633      0.00723673784956      0.02000600531184
  H   -3.34478999423957     -1.96094622744597     -0.83755896976986
  H   -0.85813767277354     -1.95866608135519     -0.85081906891971
  H   -0.85240456754003      1.97089962445939      0.86153488110022
  H   -3.33104475249681      1.96440302106205      0.90048104106859
  H   -4.57912521772178      0.00335730768543      0.03746393837414
  C   0.76992327167306      0.00903780769630     -0.02845003138752
  C   1.50534813857665      1.05643527458422     -0.59344011161153
  C   2.88292073516221      0.97970292865783     -0.51982723342671
  H   0.99724626549844      1.87982842034178     -1.08243584485171
  H   3.52449956503834      1.74523173634143     -0.93930095628413
  C   3.42073168981822     -0.13883008856012      0.11182399396480
  H   4.49207387060445     -0.27676719463864      0.20682522854274
  N   1.34996327250751     -1.04321591893688      0.57983533184278
  N   2.68188630625556     -1.12116892764380      0.64145444463169
