20
Coordinates from ORCA-job opt
  C   -2.90184001600973      0.34642737923200      0.06789656502844
  C   -1.51288622574789      0.44166784427999      0.08567785756092
  C   -0.89432843361977      1.69562929756303      0.07601047212123
  C   -1.67662116514408      2.85236677983238      0.01449175804694
  C   -3.06440942427149      2.75375053779513      0.00539646999037
  C   -3.67920587726307      1.50244707224853      0.03271070869957
  H   -3.37654851230089     -0.62826423678154      0.06875518009176
  H   -0.90397420100561     -0.45707035175626      0.09267590998357
  H   -1.18619057650153      3.81839432764798     -0.02606067214411
  H   -3.66796666178952      3.65364295785506     -0.03052511029882
  H   -4.76064171604470      1.42848720408170      0.01991482492528
  C   0.57507620201758      1.80101732118139      0.06061878410927
  C   1.36017104681635      1.14296530781230      1.01367086938311
  C   2.72853452007603      1.32223150023307      0.94619910157708
  H   0.89479520066135      0.52728618957791      1.77502652798634
  H   3.40535820205599      0.84921506726382      1.64762449552958
  C   3.20708230894031      2.16182882781051     -0.05641586210315
  H   4.26706175555399      2.35714080288378     -0.17581582795720
  N   1.09768574523805      2.62084639487647     -0.87139327504448
  N   2.41984782833865      2.79899077636273     -0.93146077748569
