20
Coordinates from ORCA-job opt
  C   -3.07087591238944      1.19038982292282      1.26377307822840
  C   -1.68887943434742      1.27935553359515      1.39084632161991
  C   -0.90338695624952      1.64761292736701      0.29213278258256
  C   -1.52675455908009      1.93928302455976     -0.92678067689264
  C   -2.91066779835593      1.85405742871589     -1.04801179684951
  C   -3.68626205217682      1.47447590126604      0.04532420077927
  H   -3.67024442556713      0.89733286677387      2.11838840133242
  H   -1.20054027841548      1.06666585834406      2.33409564552978
  H   -0.93704989945323      2.26608526174501     -1.77640050621899
  H   -3.38343910468183      2.09184536296322     -1.99425208268371
  H   -4.76398380775540      1.40643165459262     -0.04994984825059
  C   0.56132305913896      1.73553031918553      0.43501191716245
  C   1.42696467327342      1.55011462112220     -0.64996385186757
  C   2.78295861979650      1.66667083292455     -0.41492552714840
  H   1.04311455942670      1.29856913003071     -1.63111865533242
  H   3.51325579419025      1.53381593942341     -1.20412898329284
  C   3.18038507927739      1.94612756313516      0.88963278537279
  H   4.22616673817145      2.04833148582882      1.15734430547709
  N   1.01459285938949      1.99872813777132      1.67684542494508
  N   2.32432184580813      2.09757532773285      1.90713706550692
