20
Coordinates from ORCA-job opt
  C   -3.08495457223747      2.75897042032530     -0.12861880626313
  C   -1.70064759491304      2.87397730373729     -0.06866312171343
  C   -0.90295115604644      1.74132199473524      0.14385657631029
  C   -1.52787945348514      0.49847983488683      0.30747201909282
  C   -2.91389708076768      0.38815722056997      0.24756808055923
  C   -3.69871865700124      1.51724509928634      0.02691645696426
  H   -3.68753567288400      3.64442184315251     -0.29731366226078
  H   -1.21773422882264      3.83548717881008     -0.18740392674588
  H   -0.94529910948164     -0.39430649984728      0.49986269644977
  H   -3.38005833661887     -0.58194855852185      0.37808177060409
  H   -4.77828777315533      1.43049369808772     -0.01962778059061
  C   0.56778390354161      1.88368669217902      0.21537866004043
  C   1.43411368515377      0.78549400530259      0.29530843439016
  C   2.78928865228523      1.03758992071124      0.37833635047694
  H   1.06227020532457     -0.23043179258827      0.27640548248327
  H   3.51447145238871      0.23518700133882      0.44190823149271
  C   3.19271818935609      2.36918252560811      0.37171537617148
  H   4.23818355291546      2.65043025805365      0.43136147099754
  N   1.03142652457953      3.14980268821468      0.21506967587595
  N   2.33870946986855      3.39576116595799      0.28738601566490
