20
Coordinates from ORCA-job mp2_opt
  C   -2.79586251147056     -1.05379795316373      0.59965095844344
  C   -1.40313266635842     -1.04298513907621      0.60630494996541
  C   -0.70777449633875      0.01581612828127      0.01755529747510
  C   -1.41530881431251      1.05282427909642     -0.59435031583827
  C   -2.80757616551987      1.03722458583114     -0.60416128274582
  C   -3.49945969306494     -0.01537314703408     -0.00749814006976
  H   -3.33104976774665     -1.87209831731638      1.06784971466217
  H   -0.85055928679258     -1.84770729520101      1.08051466672920
  H   -0.87058416645509      1.87379778695361     -1.04844422769063
  H   -3.35231819901648      1.84649182090658     -1.07696055229052
  H   -4.58323420531547     -0.02504434919876     -0.01349271277826
  C   0.77099684860624      0.01044053978126     -0.00541895365672
  C   1.47091557845359     -0.79998201719841     -0.90386352505606
  C   2.85181836346525     -0.76298942465440     -0.85191660720748
  H   0.93314111138483     -1.42216207394009     -1.61015408864638
  H   3.46834956190317     -1.35776009215317     -1.51526060006917
  C   3.42505773897274      0.08058694841434      0.09600469534053
  H   4.50083040682831      0.16815127935577      0.20060219584350
  N   1.38234654114132      0.80125434043028      0.89578483079453
  N   2.71791682163588      0.83928809988557      0.94208269679520
