20
Coordinates from ORCA-job mp2_opt
  C   -2.78200843517563     -1.21825034761894      0.06150357961660
  C   -1.39215585146697     -1.19004466053752      0.04448322666628
  C   -0.70746016508199      0.03124478435218     -0.02432606133254
  C   -1.45053659891455      1.21790629561910     -0.06957132574485
  C   -2.84165632773032      1.18486213764059     -0.05412787047715
  C   -3.51412317005569     -0.03291227392348      0.01461609487208
  H   -3.29637675885288     -2.17108181471064      0.11567498384210
  H   -0.81652087235048     -2.10590539850177      0.08354070521501
  H   -0.95630640414179      2.17915832318939     -0.13995861262572
  H   -3.39987354260787      2.11335661084938     -0.09467701398378
  H   -4.59775800958631     -0.05763112457698      0.02837686558302
  C   0.77201909620288      0.04255119239646     -0.02003186971835
  C   1.52293836022402      1.22222399697680      0.06598214152824
  C   2.89928127689279      1.11222631509327      0.06681009754313
  H   1.04705698563465      2.19077824961232      0.14207719926550
  H   3.53952283380732      1.98387997014024      0.13064285594564
  C   3.43837563765409     -0.16822366954116     -0.00951782860771
  H   4.50913349704633     -0.33849010855515     -0.01302191737163
  N   1.36440229767284     -1.16732595025290     -0.08047766072760
  N   2.69182115082954     -1.27669252765122     -0.07580158948828
