20
Coordinates from ORCA-job opt
  C   -2.90798522946646      0.40297997157044     -0.44797202892363
  C   -1.52059453663801      0.50303002789500     -0.49378889849840
  C   -0.88750043202090      1.65980513893338     -0.03173190306779
  C   -1.65260432179500      2.70349153723294      0.49672878827410
  C   -3.04108428024526      2.60394189443120      0.53347419424038
  C   -3.66989229957310      1.45197638075712      0.06478553970900
  H   -3.39534042630728     -0.49596782307843     -0.80820078813758
  H   -0.91858313187897     -0.30345059774264     -0.89795365124246
  H   -1.15846196515281      3.60079567093789      0.85614373922582
  H   -3.63121314839912      3.42340540725934      0.92797531903057
  H   -4.75052758899959      1.37271999898220      0.09689565243598
  C   0.58547436357031      1.73231621339681     -0.01690724157425
  C   1.28714038028132      1.88217962377361      1.18381084917434
  C   2.66744459794972      1.89200495584242      1.11751936589555
  H   0.75083880969845      1.97902458854547      2.12098059639541
  H   3.28463260887360      2.00203326236817      2.00116437775063
  C   3.24058993542502      1.73279298789862     -0.14154860109557
  H   4.31628298555228      1.72760908605989     -0.27893390841969
  N   1.19892645201860      1.55650226232900     -1.20254664717139
  N   2.53345722710722      1.56180841260757     -1.26489775400105
