20
Coordinates from ORCA-job opt
  C   -2.90269223712234      0.37832796153076     -0.36943979976862
  C   -1.51482762290723      0.47963118711099     -0.41046542453776
  C   -0.88872155430514      1.66799913595507     -0.02728171757887
  C   -1.66028448929101      2.74438346391492      0.41816251562235
  C   -3.04892547874829      2.64264496624199      0.45206852508175
  C   -3.67119505051105      1.45860109202346      0.06131210096812
  H   -3.38456987838321     -0.54493478543563     -0.67074052863900
  H   -0.90979232822943     -0.35329764379329     -0.75233585658781
  H   -1.17048909095946      3.66498672901947      0.71940225421801
  H   -3.64413666434402      3.48580781154335      0.78406256709452
  H   -4.75183479595776      1.37851860306093      0.09026352474493
  C   0.58629699672566      1.75046690270683     -0.01298135216966
  C   1.29240729362396      1.75944314043854      1.19381483782008
  C   2.67238640313924      1.79444724940909      1.12359150955414
  H   0.75920950424632      1.73732484129143      2.13745467812178
  H   3.29352488962359      1.80269780088237      2.01128166443383
  C   3.23942612237165      1.80363097082667     -0.14806949147421
  H   4.31425949182911      1.83024942850700     -0.28982784252644
  N   1.19319794658263      1.73787566335616     -1.21431778606434
  N   2.52776054261677      1.77019748140990     -1.28095537831282
