20
Coordinates from ORCA-job mp2_opt
  C   -2.79449309762419     -1.09885544560709     -0.50735758535412
  C   -1.40183142184109     -1.08638751352969     -0.51709456547843
  C   -0.70730629001831      0.01707537785047     -0.01576236717029
  C   -1.41603653329808      1.10117395765655      0.50675849466133
  C   -2.80846340476598      1.08588984389013      0.51652670416974
  C   -3.49926328401932     -0.01398165742440      0.01086245180270
  H   -3.32892219434815     -1.95451364988467     -0.90419122833098
  H   -0.84845879371001     -1.92696787829255     -0.92301186837052
  H   -0.87277646013327      1.95807444142612      0.89100114444904
  H   -3.35406049799903      1.93229884892580      0.91787901998175
  H   -4.58305542950002     -0.02447725747249      0.01828201574404
  C   0.77239993693092      0.01527534509388      0.00414196696624
  C   1.47330939972671     -0.62624006376702      1.02942462109701
  C   2.85409929140314     -0.60147963413605      0.96895851067000
  H   0.93624288699036     -1.11654506435077      1.83328850399817
  H   3.47145642645693     -1.07379916288974      1.72362145888652
  C   3.42622272359537      0.06294642034171     -0.11261208587743
  H   4.50185595192280      0.12757423646050     -0.23400472081790
  N   1.38281746674923      0.63882374051635     -1.02029210037195
  N   2.71849232348199      0.66521811519297     -1.07574737065491
