20
Coordinates from ORCA-job mp2_opt
  C   -2.83788211353925     -1.18269914811053      0.11122980435869
  C   -1.44656763133953     -1.21323170361244      0.11405992229698
  C   -0.70694010676115     -0.02986353238429     -0.00850968555088
  C   -1.39286880322546      1.18814645991799     -0.10845373109752
  C   -2.78298684310299      1.21376743313391     -0.11322008827523
  C   -3.51230663092085      0.03041603916867     -0.00623668753879
  H   -3.39473078398935     -2.10778027535941      0.20864298997094
  H   -0.94684840683625     -2.16695726661956      0.23503108442404
  H   -0.81911317049760      2.10260207134020     -0.18915074478249
  H   -3.29985043194818      2.16291102758849     -0.19907877703004
  H   -4.59607196765879      0.05353960231536     -0.00922725352895
  C   0.77145154372483     -0.04075588864282      0.00660562896291
  C   1.52003404450825     -1.21606026513057     -0.13915596768922
  C   2.89653979471889     -1.10999423639987     -0.11562327638341
  H   1.04013986089915     -2.17508785846822     -0.28416331469712
  H   3.53656656886236     -1.97759748227933     -0.22216669357528
  C   3.43636815974980      0.16362817701392      0.03608875290901
  H   4.50723393867818      0.33132476875561      0.06215570746518
  N   1.36373645972676      1.16386659073424      0.13161474322211
  N   2.69152351895119      1.26971948703867      0.14709858653906
