20
Coordinates from ORCA-job opt
  C   -2.92852425430592      0.52594145907310      0.66646230490851
  C   -1.54496389222879      0.65450996455153      0.74732758529647
  C   -0.90258432959161      1.75666189114406      0.17170117650807
  C   -1.66604177266551      2.73261636754202     -0.47887929454925
  C   -3.04765741796878      2.59700924932453     -0.56271673602444
  C   -3.68277221267391      1.49403676301038      0.00673789423943
  H   -3.41790332011168     -0.32586350178756      1.12510353034469
  H   -0.96884413837318     -0.08864127839015      1.28842588333932
  H   -1.16187683021093      3.58859969846760     -0.91123180035362
  H   -3.63119343040743      3.35375328252784     -1.07486356541619
  H   -4.76012823457248      1.39256562215266     -0.05807437496913
  C   0.56164750486552      1.90249895748879      0.24869924370465
  C   1.41561838801477      0.79323715593563      0.27438138611784
  C   2.77359324654122      1.03293892528190      0.35309049972347
  H   1.01939822611806     -0.21302962226788      0.20960824595770
  H   3.49654796394890      0.22626997385469      0.37434011575354
  C   3.18294613818984      2.36326143069324      0.38469719354115
  H   4.23105189588142      2.63540090971793      0.44144004980547
  N   1.02531991652255      3.16773781513475      0.27311429014565
  N   2.33736655302795      3.39949693654493      0.33563437192666
