20
Coordinates from ORCA-job mp2_opt
  C   -2.84136178252702     -1.18460377208892     -0.05906854545239
  C   -1.45016874761244     -1.21773876030887     -0.06040425566720
  C   -0.70754280064142     -0.03179197117715      0.00675566619707
  C   -1.39276713341874      1.19010200588859      0.05708305026015
  C   -2.78268280187811      1.21842784880532      0.05940843174589
  C   -3.51434793613929      0.03321816196238      0.00317818773999
  H   -3.39923713133498     -2.11271038757277     -0.11148800877183
  H   -0.95521134311482     -2.17878507638043     -0.12842129580769
  H   -0.81747443827524      2.10603607906276      0.09941009258245
  H   -3.29753277566339      2.17150643700766      0.10371088450860
  H   -4.59807026620287      0.05812049067077      0.00441609713216
  C   0.77186857023178     -0.04266626782654     -0.00401106016892
  C   1.52354784224650     -1.22232271783226      0.07536405806977
  C   2.89982009468792     -1.11263528445490      0.06022463307288
  H   1.04830460668007     -2.19072733580403      0.15747480536380
  H   3.54062810963429     -1.98434024923856      0.11733033086372
  C   3.43817136643227      0.16775478752172     -0.02236524673679
  H   4.50883755387386      0.33787092969475     -0.03831549796722
  N   1.36364202896960      1.16723125585455     -0.06910971086545
  N   2.69105098405201      1.27634382621596     -0.07944261609899
