20
Coordinates from ORCA-job mp2_opt
  C   -2.80866706958192     -1.09003408952325     -0.50629167692545
  C   -1.41617355876724     -1.09692368338148     -0.51401661249500
  C   -0.70774616379559     -0.00084425442732     -0.01680480436952
  C   -1.40236903489664      1.09499162015047      0.50065931709732
  C   -2.79507023689463      1.09907126809508      0.50833969328259
  C   -3.49968593557491      0.00799636938612      0.00307210613999
  H   -3.35414765084788     -1.94368128077776     -0.89216074735777
  H   -0.87261988482845     -1.95432636988746     -0.89671600201356
  H   -0.84893662600730      1.93817493550147      0.90100418624889
  H   -3.32962378587258      1.95084228410484      0.91328348257260
  H   -4.58352936578301      0.01145549129548      0.01031923737821
  C   0.77214682038160     -0.00665194585003     -0.01931345592895
  C   1.49123123280723      0.61347728230126     -1.04510131714953
  C   2.87092635993784      0.58098802872154     -0.96540738047438
  H   0.96849781977977      1.09434845981270     -1.86395658053696
  H   3.50164215773659      1.03707098590234     -1.71898236106258
  C   3.42376829224530     -0.06914979448906      0.13464661432456
  H   4.49718569806001     -0.13836477753321      0.27216811432581
  N   1.36443352744182     -0.61815731520679      1.02291556733026
  N   2.69899640445996     -0.65148321419495      1.09737461961347
