20
Coordinates from ORCA-job opt
  C   -2.90476185537894      0.34396127250967      0.03564260369426
  C   -1.51542433329581      0.43518341748978      0.05324645623839
  C   -0.89408556459327      1.68733308640912      0.07532393068523
  C   -1.67312071432148      2.84713489004053      0.04340749002518
  C   -3.06133726210397      2.75254924746922      0.03430873824438
  C   -3.67914073398320      1.50250330788333      0.03096512666976
  H   -3.38201648102969     -0.62921400326297      0.01261772857800
  H   -0.90800987573207     -0.46448831427234      0.03856587995120
  H   -1.18100587670340      3.81312602740019      0.02506910045159
  H   -3.66257083581765      3.65461408358192      0.02126797723696
  H   -4.76077561741355      1.43167330590763      0.01800172072399
  C   0.57617974306080      1.78942971715196      0.05561214431660
  C   1.35860638458303      1.17555837217280      1.03954991751748
  C   2.72718669954542      1.35246252689582      0.96790238530619
  H   0.89053908263794      0.59263389721705      1.82471418747161
  H   3.40255599336795      0.91196019434761      1.69155326509607
  C   3.20770243179545      2.14607995597815     -0.07055433812806
  H   4.26794247987885      2.33610189590903     -0.19614081446414
  N   1.09994406300282      2.56773602531419     -0.91047783298731
  N   2.42259127250077      2.74266109385731     -0.97557666662739
