20
Coordinates from ORCA-job mp2_opt
  C   -2.80887218780187     -1.03277917269898     -0.59966741097752
  C   -1.41681262378440     -1.03709822506822     -0.61725947650393
  C   -0.70645445142880      0.01340181616042     -0.03220250775303
  C   -1.39839693382591      1.05247062354130      0.59472794403301
  C   -2.79093160805370      1.05041444424194      0.61799660707033
  C   -3.49756891996998      0.01016585537393      0.01761828160508
  H   -3.35632279146166     -1.84721735917900     -1.06027489434410
  H   -0.87351379330576     -1.85446569667946     -1.07922576603841
  H   -0.84306056347900      1.85459762446990      1.07027488028437
  H   -3.32329148825686      1.85562405636704      1.11142360693423
  H   -4.58126246423974      0.00924135692993      0.03561520514762
  C   0.77154523407655      0.00105546782515     -0.02933002690866
  C   1.50212646494757      0.88342830943559     -0.83029188130522
  C   2.88085523037121      0.82372340954223     -0.75031100751432
  H   0.98877590424194      1.57501906385393     -1.48859623790032
  H   3.51970029626484      1.46895667558971     -1.34148598991870
  C   3.42168396019511     -0.11152773510767      0.12801547487218
  H   4.49358011321685     -0.22212867569897      0.24936942037296
  N   1.35250979890010     -0.87866781147896      0.80775628927781
  N   2.68577882339355     -0.93710502741982      0.88218648956664
