20
Coordinates from ORCA-job mp2_opt
  C   -2.80908470279188     -1.04369669769667      0.57556779598786
  C   -1.41728985483077     -1.04816477760030      0.59674186580188
  C   -0.70567461067438      0.01618254740199      0.03835337406114
  C   -1.39651621974537      1.06619711063028     -0.57192109772424
  C   -2.78890699305536      1.06367780969588     -0.60003216035072
  C   -3.49663555643871      0.01136745741174     -0.02239006116379
  H   -3.35762157679563     -1.86751333756061      1.01782183865974
  H   -0.87396102711039     -1.87471553760598      1.04177127387895
  H   -0.84040014708072      1.87732260608738     -1.03119602040981
  H   -3.32026953747305      1.87724850234985     -1.08064758949126
  H   -4.58029215114091      0.01029147330485     -0.04354009771758
  C   0.77127550920859      0.00137331841034      0.03423053753711
  C   1.50523026581450      0.94157230464106      0.76361784409049
  C   2.88346175446625      0.87693156367310      0.68122421725353
  H   0.99473650445184      1.67854432500471      1.37314222268733
  H   3.52471956683534      1.56407520014009      1.22018640351734
  C   3.42095754293894     -0.12085268108672     -0.12770783833246
  H   4.49232942129903     -0.23969729102360     -0.24579646178491
  N   1.34949318170889     -0.93711763327962     -0.73864614956209
  N   2.68225463041378     -1.00111226289778     -0.81411989693853
