20
Coordinates from ORCA-job mp2_opt
  C   -2.80442734076319     -1.07822271319319     -0.50872614992019
  C   -1.41301648545138     -1.08141965948140     -0.52768665649633
  C   -0.70419822790005      0.01848785441148     -0.03737071667539
  C   -1.39864016625253      1.10176801496593      0.50867779952028
  C   -2.79084808741753      1.09748034645368      0.53615660217841
  C   -3.49530252617544      0.01031086387437      0.02237694437447
  H   -3.35090410423537     -1.92826204434622     -0.90106870838320
  H   -0.86515961797565     -1.93125640068842     -0.91959026104853
  H   -0.84549287122656      1.93936160029578      0.92197548111057
  H   -3.32483590766476      1.93641475418502      0.96772286162726
  H   -4.57903528417690      0.00815804308664      0.04198202718021
  C   0.77061092727294      0.00524926842298     -0.03188299201265
  C   1.50583611569279      1.02378581308334     -0.64698292702346
  C   2.88355255816988      0.95103985626607     -0.56901315766020
  H   0.99694071019177      1.82317172410778     -1.17361800086475
  H   3.52537383508230      1.69524529107289     -1.02500472708122
  C   3.42065708599409     -0.13413317241486      0.11886701563816
  H   4.49194349982579     -0.26633950991225      0.22241013816637
  N   1.34933199809408     -1.01499550365742      0.62956307199039
  N   2.68162988891571     -1.08862042653218      0.69708035537980
