20
Coordinates from ORCA-job mp2_opt
  C   -2.79467654611629     -1.05210081110977     -0.60543102068163
  C   -1.40200340256000     -1.04036522858011     -0.61064410726050
  C   -0.70765124311182      0.01824329577729     -0.01996019395165
  C   -1.41618686226816      1.05132463701956      0.59760099230557
  C   -2.80827604724313      1.03332828134773      0.60838113854269
  C   -3.49917104738144     -0.01715030178606      0.00657611671416
  H   -3.32899758526937     -1.86839075525511     -1.07809883135638
  H   -0.84856503469324     -1.84260903105660     -1.08823165276609
  H   -0.87152466046439      1.87028637185573      1.05520697908454
  H   -3.35402341628776      1.83860018307097      1.08680278614557
  H   -4.58294002989110     -0.02788864593333      0.01241237669756
  C   0.77009825943293      0.01115426999562      0.00682143143876
  C   1.46846965537440     -0.88414071396230      0.82222364239891
  C   2.84935512869374     -0.84407352148008      0.77484118446802
  H   0.92949639216202     -1.56939706998683      1.46652365781998
  H   3.46465485930642     -1.50001065435763      1.37904108621851
  C   3.42440830271100      0.08562921088403     -0.08764075400076
  H   4.50036520678292      0.18088543346642     -0.18313315639410
  N   1.38331663101673      0.88399304127504     -0.81404957105336
  N   2.71882543980655      0.92378300881543     -0.85658810436980
