20
Coordinates from ORCA-job mp2_opt
  C   -2.80401797729705     -1.10780545728009      0.48073107059950
  C   -1.41175655506357     -1.10678961880457      0.49439505380230
  C   -0.70575625495758      0.00741541775244      0.03086784557702
  C   -1.40453907414008      1.10941578297098     -0.47030713254120
  C   -2.79575251769864      1.10046981421821     -0.49373235377513
  C   -3.49760119542631     -0.00660939698374     -0.01805904321897
  H   -3.34701693417004     -1.96640188623011      0.85906917003278
  H   -0.86838448585553     -1.95895661797507      0.89051584589308
  H   -0.84762926151317      1.96782548331106     -0.82923759511800
  H   -3.33375403749144      1.95579267550365     -0.88634642094660
  H   -4.58141516392736     -0.00986482749073     -0.03315891080406
  C   0.76783871209185     -0.00324798176934      0.00230442242556
  C   1.47313516891340     -1.05898841094664     -0.58504994189812
  C   2.85311335253699     -0.99805234970650     -0.55319216961537
  H   0.94096297919030     -1.87524853250035     -1.06003823805154
  H   3.47258586023471     -1.77043802760047     -0.99287805706873
  C   3.42321765442595      0.11290699572616      0.06330860227683
  H   4.49852399575913      0.23766289682193      0.12610513983361
  N   1.37854724646402      1.04158625583862      0.59308039576829
  N   2.71256548792443      1.10351378514455      0.61564731682874
