20
Coordinates from ORCA-job mp2_opt
  C   -2.83027166442794     -1.17456030413425     -0.20190912503101
  C   -1.43880221832718     -1.20017611707062     -0.20719044861549
  C   -0.70591255539764     -0.02556262064056      0.00336577185298
  C   -1.39276194259781      1.17926827916628      0.19944123014711
  C   -2.78311159128992      1.19941348626234      0.20858110058633
  C   -3.50736424001879      0.02425614826596      0.01144700852784
  H   -3.38541091499656     -2.08988772366989     -0.37306272117444
  H   -0.92846524696950     -2.13558427678532     -0.40732714914052
  H   -0.82068628561582      2.08670203412501      0.34773876023307
  H   -3.30431031773425      2.13614221575575      0.37060660984707
  H   -4.59119510814055      0.04350225908105      0.01744432757314
  C   0.76989771963029     -0.03571795010057     -0.00748837178025
  C   1.51131231523866     -1.19674132258886      0.24628185715004
  C   2.88831796154612     -1.09855196550643      0.21616434002545
  H   1.02017851593483     -2.13250438524155      0.48206413076342
  H   3.52603069519498     -1.95381910764081      0.40448108311987
  C   3.43176217718410      0.15547784941694     -0.04820175665386
  H   4.50332406267263      0.31680413985268     -0.08448391705598
  N   1.36310036790789      1.15170337701677     -0.24250749238248
  N   2.69210627020647      1.25031298443608     -0.26047523799231
