20
Coordinates from ORCA-job mp2_opt
  C   -2.80770997171743     -1.12067773339621      0.44256810637641
  C   -1.41556530956888     -1.12496220107950      0.45525880981968
  C   -0.70548517899054      0.00103101188275      0.02690286800063
  C   -1.40116537713792      1.12265444113543     -0.43438419322248
  C   -2.79221073284210      1.11934213946086     -0.45635692725278
  C   -3.49784698213026     -0.00081353601404     -0.01808339616764
  H   -3.35342737164482     -1.98937158573917      0.79289394068301
  H   -0.87621159468942     -1.99105124042266      0.82577311490136
  H   -0.84056382037880      1.99022903890006     -0.76382219221581
  H   -3.32745383668195      1.98977818777782     -0.81832215469186
  H   -4.58169187018501      0.00031633341717     -0.03213267381080
  C   0.76743016643471     -0.00923117773012      0.00156081378540
  C   1.47874992417147     -1.08768831414385     -0.53587383857520
  C   2.85825470358435     -1.02024050230651     -0.50274995937580
  H   0.95227252004937     -1.92611882350219     -0.97725634897502
  H   3.48163209758795     -1.80967728597698     -0.90497857576584
  C   3.42291064929669      0.12061070791751      0.06206995032564
  H   4.49758027427926      0.25220726693525      0.12165982658040
  N   1.37375313707881      1.06541297797355      0.54177921716989
  N   2.70700857348453      1.13412929491081      0.56370861241078
