20
Coordinates from ORCA-job opt
  C   -2.92929485757952      0.45901292246346     -0.57866862602591
  C   -1.54030247155818      0.53253037563357     -0.60042422563346
  C   -0.88658807393289      1.60964770969834      0.00658824537391
  C   -1.63883400904477      2.60758275120212      0.63539121258594
  C   -3.02888272853464      2.53449728692262      0.64787318707919
  C   -3.67621946404079      1.45749492068956      0.04539985981185
  H   -3.43085355882721     -0.38058131843676     -1.04658067424216
  H   -0.94806428296749     -0.23299555345259     -1.08825428087774
  H   -1.13677650673826      3.45751757270722      1.08656014616574
  H   -3.60629571296491      3.31911540701438      1.12365339952873
  H   -4.75860622072885      1.39869512695642      0.05828776078825
  C   0.58505185692166      1.66211708139166      0.01528272847327
  C   1.29653324018205      2.05741393248008      1.15402029992804
  C   2.67577414261280      2.05821856387774      1.07612029999247
  H   0.77290181074079      2.33185396796329      2.06236885054743
  H   3.29706332123743      2.34833636879949      1.91496764876685
  C   3.24279849053853      1.64662518666652     -0.12724336504193
  H   4.31756669229891      1.61519645174091     -0.26787957454524
  N   1.19563531530791      1.25799230796713     -1.11569311790286
  N   2.52839501707743      1.24872793771484     -1.18677177477238
