20
Coordinates from ORCA-job opt
  C   -2.91323960312187      0.34064086198844     -0.09122493888839
  C   -1.52283391500766      0.42059963575311     -0.07819544831811
  C   -0.89313650505823      1.65996052766402      0.06116870125873
  C   -1.66359010577220      2.82107666321788      0.15683857527656
  C   -3.05314408568974      2.73771958158179      0.14979240807760
  C   -3.67955033841392      1.49851833083393      0.02639602975257
  H   -3.39753906809933     -0.62276517458906     -0.20393087901911
  H   -0.92095449072360     -0.47667139034091     -0.18201760106215
  H   -1.16803632346466      3.78301322024951      0.23221917791136
  H   -3.64750447187261      3.64075026884650      0.23140605249510
  H   -4.76170001427458      1.43618355912127      0.01594453907156
  C   0.58118206838817      1.75455258441661      0.04064419125659
  C   1.34793672803443      1.32143193606090      1.12666348171370
  C   2.71855276299262      1.47970581558992      1.04246824479183
  H   0.86652700944974      0.88179465396022      1.99281571632503
  H   3.38370495568459      1.17135365461500      1.84018770417930
  C   3.21467920755190      2.07186286830457     -0.11583631097444
  H   4.27735707747424      2.23246593825838     -0.26071189643506
  N   1.11848918614201      2.34155151230014     -1.04495285900437
  N   2.44379992578069      2.49525695216781     -1.12467688840827
