20
Coordinates from ORCA-job mp2_opt
  C   -2.81517911337036     -1.14252818900210      0.36683378693204
  C   -1.42332001860832     -1.15646397116182      0.37541315346442
  C   -0.70513747398201     -0.01130058276336      0.01473439317678
  C   -1.39591916377899      1.14515371719846     -0.36215423886690
  C   -2.78666715389149      1.15173706524813     -0.37994590858699
  C   -3.49948786273210      0.00953345153309     -0.01640015579874
  H   -3.36529910774556     -2.02846559138940      0.66291594253133
  H   -0.89269299343014     -2.04759041307652      0.69511677419977
  H   -0.82955138155493      2.02840281660152     -0.63368946634067
  H   -3.31666251073087      2.04881664185351     -0.67920470335585
  H   -4.58335667243067      0.01869564758976     -0.02692212645120
  C   0.76742409610403     -0.02079925853125      0.00237168586342
  C   1.49074879112910     -1.13369363285199     -0.44237247308572
  C   2.86923282064912     -1.05375748760016     -0.40763260926729
  H   0.97633346745513     -2.00935309510343     -0.82068841409664
  H   3.49962533563637     -1.86941547290895     -0.74061642353654
  C   3.42365200341089      0.13449094906424      0.06137749970210
  H   4.49704019469078      0.27824130752578      0.11536815181086
  N   1.36583305978967      1.10266948665507      0.44424601002478
  N   2.69761568339035      1.18296961111940      0.46759412168103
