27
Coordinates from ORCA-job mp2_opt
  C   -1.47528053075090      2.56994096271956     -0.43270254009197
  C   -0.79180891397514      0.39198485920432     -0.21146672742357
  C   -2.10056315476576     -0.02988976631532      0.09286364285733
  C   -3.10209044201327      0.94228099186972      0.17223405833338
  C   -2.79177961118663      2.26325648290793     -0.07534602513689
  H   -1.19274306129621      3.58841840873757     -0.68288479907147
  C   -2.46652449047190     -1.44980354528712      0.27057162082263
  H   -4.10532933195286      0.60871980921407      0.41311319072371
  H   -3.54114628843620      3.04344705683270     -0.02505830372232
  C   -1.34563569484823     -2.33429199768132      0.09507091615353
  C   -0.09571137847960     -1.86251217137718     -0.15100103619190
  H   -1.48667637092742     -3.40076649447009      0.21711630634670
  H   0.72788758634502     -2.55710801190086     -0.17301281694055
  C   1.64074629770776     -0.19634852820495     -0.21165600385181
  C   2.61500368341984     -1.17275888532220     -0.46537171367056
  C   2.05555787864022      1.01415399313861      0.35817114003207
  C   3.96149520118204     -0.91934547712090     -0.22664949248883
  H   2.35592291222546     -2.11172076210623     -0.93520689307695
  C   3.40564790640889      1.25393220577032      0.59886538391107
  H   1.33542821105096      1.77339215518318      0.61096727718479
  C   4.37099864410636      0.29508213667012      0.31283864677561
  H   4.68807011148518     -1.68812634199981     -0.46284399826121
  H   3.69320102077504      2.20406510050635      1.03449696022553
  H   5.41972073853792      0.49042408509032      0.50148708524106
  O   -3.61490727969731     -1.80565726722734      0.53972257275365
  N   0.24565074070629     -0.54257947379584     -0.34516213175243
  N   -0.50362238378954      1.66745747496440     -0.51336831968063
