27
Coordinates from ORCA-job mp2_opt
  C   -1.41271482232233      2.57752725933064      0.37692945617484
  C   -0.78393794158000      0.38972900261645      0.12302556169381
  C   -2.12073723176463     -0.02111347318392     -0.04774076976693
  C   -3.11361357476478      0.96306402421585     -0.03557541535527
  C   -2.76288102441052      2.28234400942559      0.16438571735613
  H   -1.09382935845421      3.59651699802034      0.57648408195157
  C   -2.51488913064857     -1.43807390008302     -0.19540455588523
  H   -4.14014759907909      0.64170289860507     -0.17256730807683
  H   -3.50405786201473      3.07186372274553      0.18045915126771
  C   -1.38874108586712     -2.33406910647992     -0.17437457834511
  C   -0.11777879045686     -1.87461039127718     -0.03736557160200
  H   -1.55152185595241     -3.39458644724656     -0.31885744968280
  H   0.71241543479143     -2.56096575623058     -0.11826505072450
  C   1.63616797920628     -0.25079663442440      0.00007211609688
  C   2.09002746227487      0.96283030264106     -0.52348338250305
  C   2.57318965031066     -1.15132523298439      0.52639895310452
  C   3.45767765938867      1.21059803392464     -0.61398294340526
  H   1.39177377205554      1.69164373699636     -0.90052413646169
  C   3.93571399258639     -0.89194183183093      0.43250094605407
  H   2.24593079734897     -2.04384714718529      1.04436539064321
  C   4.38944985328330      0.29249130672488     -0.14056399871349
  H   3.78865405778979      2.14666882819843     -1.04918963741184
  H   4.63902899552891     -1.60816997732949      0.84134493155249
  H   5.45067329539034      0.50049369975763     -0.20654780862559
  O   -3.69024320536316     -1.78277245989269     -0.33068375571827
  N   0.24244459233476     -0.56181640430136      0.16941042371863
  N   -0.44733905961149      1.66480193924726      0.36924463266401
