27
Coordinates from ORCA-job mp2_opt
  C   -1.18705626189800      2.61257544381810      0.22046995243776
  C   -0.74720242283071      0.38833842698558      0.01199769480491
  C   -2.11201582980161      0.05004867410776      0.00084300047901
  C   -3.03305927106784      1.09691367115220      0.10142739199500
  C   -2.57017922042622      2.39369457190781      0.21062044191686
  H   -0.78902398730875      3.61885032015173      0.31269837454513
  C   -2.57671743125704     -1.35127758275557     -0.10023278919241
  H   -4.08863988569987      0.84834547387399      0.09264826836216
  H   -3.25146724977091      3.23193815557988      0.29091098397145
  C   -1.50033899840610     -2.30964660400394     -0.17153268793931
  C   -0.19591317906627     -1.91734179420795     -0.16231705069574
  H   -1.73900865699000     -3.36311429347489     -0.24209629816281
  H   0.61881128120175     -2.62997062577464     -0.22560877955960
  C   1.59876630530783     -0.30547459341153     -0.04347306436778
  C   2.21423595381380      0.27699440726588     -1.14785713712709
  C   2.32899189315537     -0.63556543541013      1.09445895462523
  C   3.58055484735752      0.53531315781008     -1.10690519959684
  H   1.61973928917600      0.52665359513099     -2.01912752725393
  C   3.69857556866229     -0.38215451692172      1.12394228616699
  H   1.82119711920458     -1.07804902649035      1.94479498935918
  C   4.32418410231640      0.20398334236985      0.02572798011499
  H   4.06668552925996      0.99070099052972     -1.96200099909427
  H   4.27369309057566     -0.63673289394654      2.00660603691069
  H   5.38917626078241      0.40299160818789      0.05172173417442
  O   -3.77547908341782     -1.64120993042987     -0.11824865572306
  N   0.20405640480057     -0.61510473161722     -0.09107752006422
  N   -0.28325816767302      1.64202818957290      0.12369061891329
