27
Coordinates from ORCA-job mp2_opt
  C   -1.34575824849715      2.58150838095023     -0.38983386602675
  C   -0.77119643593120      0.38788896647354     -0.10225471757401
  C   -2.11762419104818     -0.00180936397355      0.03226369951377
  C   -3.09192649386087      0.99937143413624     -0.02429322139074
  C   -2.70854382580662      2.30960085385312     -0.22660555263127
  H   -1.00343110004291      3.59437174567537     -0.58139626905463
  C   -2.53107350942128     -1.41261257613760      0.19386131077686
  H   -4.12857033249423      0.70005986718607      0.08366017469147
  H   -3.43408193385695      3.11215010137473     -0.27652503737478
  C   -1.41816176647844     -2.32721213231016      0.21068060522488
  C   -0.13612548965806     -1.88842585429535      0.09965567546257
  H   -1.60428345599238     -3.38403364252075      0.35346766545541
  H   0.69362469090863     -2.57759969249451      0.18683349091798
  C   1.62669993749453     -0.26981423709881      0.01209151474473
  C   2.08865779085857      0.85713693719705      0.69384727974912
  C   2.53345665404095     -1.08997822202926     -0.66632185819093
  C   3.45583973455240      1.11227251036262      0.74854032731171
  H   1.39580172545944      1.50747982505039      1.20603818664298
  C   3.89799921113343     -0.82644385852753     -0.60249958150028
  H   2.17115695043913     -1.91610927001771     -1.26695945927811
  C   4.36635472737336      0.27756927264272      0.10478235337037
  H   3.80669548057240      1.97929565712506      1.29638142803423
  H   4.58991959878231     -1.47243375940294     -1.13050856146954
  H   5.42819241463552      0.48878359912199      0.14864953204321
  O   -3.71433322652878     -1.73989273072726      0.30592923028929
  N   0.23330761899198     -0.58088219982082     -0.09152504832295
  N   -0.39596252562559      1.65390938820714     -0.33804730141458
