27
Coordinates from ORCA-job mp2_opt
  C   -1.24727061519279      2.59409471456377     -0.35349325456285
  C   -0.75557844518716      0.38828613610532     -0.05381912427178
  C   -2.11450308579891      0.02919639859273      0.00853282420589
  C   -3.05749508493063      1.05483411087187     -0.10711800466386
  C   -2.62477488524578      2.35397810524550     -0.28496953757669
  H   -0.86975711957357      3.60064068422172     -0.50820256025678
  C   -2.55902513574560     -1.37300484888596      0.16910074433580
  H   -4.10700498033618      0.78643611265408     -0.05780534841168
  H   -3.32400856141460      3.17579655383386     -0.37838865978682
  C   -1.46775432118988     -2.31274402633523      0.24490070819376
  C   -0.17076955903013     -1.90248515960231      0.19172143452798
  H   -1.68701324137071     -3.36559024053913      0.36800323979846
  H   0.65157540707157     -2.60233615269545      0.28381289518500
  C   1.60950741098909     -0.28964806027087      0.03457609548264
  C   2.13926584738824      0.62427988015864      0.94381129308965
  C   2.43184232674990     -0.93230730704217     -0.88889878504397
  C   3.50564715066815      0.88286145822886      0.93079123675995
  H   1.48627689393468      1.11650688656915      1.65328252759063
  C   3.80058522366961     -0.67404559849342     -0.88750274971368
  H   1.99605282790908     -1.61462052057318     -1.61064895188441
  C   4.33943442199992      0.23538303335973      0.01926492237532
  H   3.92084536847558      1.58970315771032      1.63981692211152
  H   4.44081439313300     -1.17374890379049     -1.60524861248881
  H   5.40346795736016      0.44047603187963      0.01565403779812
  O   -3.75280930683640     -1.67659536612990      0.22993288455040
  N   0.21638109597535     -0.60003354980938      0.04824770393170
  N   -0.32432398347199      1.64381747017229     -0.24387488127548
