27
Coordinates from ORCA-job mp2_opt
  C   -1.31109031763206      2.58894403837959     -0.38164070108307
  C   -0.76853823031008      0.39322723076000     -0.08564441552066
  C   -2.11868899075673      0.01049678494536      0.01719262489039
  C   -3.08337368244458      1.01842008794902     -0.07273317473985
  C   -2.68108658756647      2.32460090395455     -0.26801065654108
  H   -0.95684838014763      3.60101288918323     -0.55427186614379
  C   -2.53482883713055     -1.39857121272763      0.19098127655929
  H   -4.12559630559525      0.73016330349164      0.00839216989003
  H   -3.39810911081319      3.13284898917160     -0.34306049625860
  C   -1.42467888362021     -2.31701995463551      0.24517788773723
  C   -0.13743162774346     -1.88452730612251      0.15380871637995
  H   -1.62042133381581     -3.37212546638175      0.38737013668250
  H   0.69700290145741     -2.56986116203912      0.24067799355428
  C   1.61357704125020     -0.24327144958668     -0.01804289867766
  C   2.47712031166741     -0.97314049320787     -0.83402816436391
  C   2.11448066495315      0.71952358778241      0.85841537336802
  C   3.84712411213484     -0.72747364597305     -0.78450730719316
  H   2.07285023912016     -1.70503157587424     -1.52457541164580
  C   3.48339486084901      0.96192463015233      0.89539460366351
  H   1.43863998587928      1.26512877983361      1.50359201866224
  C   4.35369410558601      0.24101912123142      0.07814088880107
  H   4.51462773368441     -1.29032399747229     -1.42671984979475
  H   3.87194182734543      1.71039674501646      1.57624691815559
  H   5.41934010825128      0.43419131566505      0.11376592412409
  O   -3.72112537638218     -1.72334998648741      0.28146033321581
  N   0.22541694616688     -0.57757824647183     -0.02005173366914
  N   -0.36846117438729      1.65577408946360     -0.29742219005254
