27
Coordinates from ORCA-job mp2_opt
  C   -1.20094913250826      2.60470257244128     -0.29856661758862
  C   -0.74849977748051      0.38921357775289     -0.02491625610781
  C   -2.11225337222024      0.04631005206318      0.00277285253440
  C   -3.03856776612519      1.08586678992089     -0.12228193815167
  C   -2.58287346782780      2.38108457968247     -0.27182583830626
  H   -0.80715684666467      3.60893379682758     -0.42505924664132
  C   -2.57360415956757     -1.35305314603296      0.14104076744981
  H   -4.09282975558623      0.83273638302877     -0.10110296564792
  H   -3.26823311766595      3.21375179115614     -0.37213626290176
  C   -1.49436152977554     -2.30672221178343      0.22625014474404
  C   -0.19151603340651     -1.91083666001435      0.20183669497495
  H   -1.72827212934004     -3.35896474817744      0.32501775594487
  H   0.62413662954332     -2.62019396055959      0.28450499782843
  C   1.60208629730702     -0.30519412460924      0.04974401556609
  C   2.36765158531565     -0.79623015743784     -1.00459645407957
  C   2.18274196611862      0.44958240818716      1.06592560626599
  C   3.73693019181142     -0.54104813668725     -1.03273431032856
  H   1.88721718392589     -1.36252168658902     -1.79532345344983
  C   3.54861161876254      0.70805389871154      1.02468018187747
  H   1.56400376042525      0.82600908729540      1.87177495896189
  C   4.32779082759949      0.21171762083670     -0.02056954826477
  H   4.33790556311905     -0.92233213898607     -1.85010704483407
  H   4.00694098033464      1.29354734579879      1.81326816644235
  H   5.39233848702830      0.41287833241401     -0.04593817207596
  O   -3.77145144298913     -1.64462180819314      0.17358231358019
  N   0.20743979276589     -0.60991148409342      0.09502142638352
  N   -0.29278035289945      1.64105302704696     -0.17927577417589
