27
Coordinates from ORCA-job mp2_opt
  C   -1.22545777010191      2.60073585893055      0.32245607789062
  C   -0.75282782451188      0.39037331829430      0.03545097359162
  C   -2.11397914397853      0.03773704692049     -0.00349314821591
  C   -3.04921694411619      1.06943988307540      0.12049836640224
  C   -2.60531674066458      2.36727090152965      0.28127461892351
  H   -0.84015786257179      3.60679621525182      0.46014552445186
  C   -2.56543100078965     -1.36382585052437     -0.15085742234734
  H   -4.10114818924501      0.80775719510816      0.09004027419714
  H   -3.29797278748968      3.19400535766352      0.38040364741273
  C   -1.47918218221709     -2.30902410227558     -0.23756731991718
  C   -0.17947501990673     -1.90425013994714     -0.20451918450531
  H   -1.70505608710672     -3.36194268217906     -0.34728284335286
  H   0.64043017109352     -2.60761352293485     -0.29415953054046
  C   1.60491642751034     -0.29190734186591     -0.04291955869302
  C   2.39453660472970     -0.86222213809005      0.95267615218109
  C   2.16572569583673      0.53596389838483     -1.01294933103127
  C   3.76428482112108     -0.60887943814062      0.97049390774119
  H   1.93227270266784     -1.48550702186851      1.71063118875848
  C   3.53222486908092      0.79182177547480     -0.98098839186365
  H   1.53275746573355      0.96923227517481     -1.77770208521694
  C   4.33397610930300      0.21972891259109      0.00680475402163
  H   4.38180825300803     -1.05072821750824      1.74387660546572
  H   3.97342904927931      1.43420930326494     -1.73425708922018
  H   5.39875271931812      0.42034650148958      0.02479890075151
  O   -3.76106136797312     -1.66338186061488     -0.19105952520377
  N   0.21178180277824     -0.60177778949842     -0.08258706054588
  N   -0.30932777078750      1.64465066229369      0.20450449886442
