27
Coordinates from ORCA-job mp2_opt
  C   -1.16773547745295      2.61594747524771     -0.16688851007694
  C   -0.74351609387227      0.38459995675219     -0.01084237272430
  C   -2.11054805162266      0.05548610253043      0.00038882526223
  C   -3.02425070401465      1.11085125488814     -0.07413811088302
  C   -2.55238741450397      2.40642698693199     -0.15760911039960
  H   -0.76311696900470      3.62129319990258     -0.23698422078207
  C   -2.58354023868104     -1.34462744521825      0.07901595754495
  H   -4.08160032410396      0.87005451575071     -0.06533869391649
  H   -3.22794319755788      3.25092515505251     -0.21745848462042
  C   -1.51268687415631     -2.31101163883127      0.12910290585022
  C   -0.20562574399346     -1.92704634599110      0.11919987918496
  H   -1.75796416358795     -3.36392897908989      0.18193660599440
  H   0.60531071499455     -2.64540076960069      0.16408698119618
  C   1.59708340828265     -0.31855868350293      0.03188127701049
  C   2.22880708740987      0.13067844437151      1.18779972496665
  C   2.30858843716277     -0.51059341383676     -1.14844356903663
  C   3.59421590357918      0.39675925925150      1.15662912528079
  H   1.64705441576808      0.27427774505008      2.09122052719480
  C   3.67648359780919     -0.24791580771706     -1.16997580724528
  H   1.78753842878265     -0.85306769600025     -2.03588761770530
  C   4.31859176258610      0.20725868609154     -0.02001670391311
  H   4.09369110354311      0.74942465589580      2.05155952423095
  H   4.23794173497500     -0.39354880981984     -2.08546808702718
  H   5.38213072270834      0.41439004701791     -0.04009942460766
  O   -3.78400902532735     -1.62745142106823      0.09646902876748
  N   0.20088233729994     -0.62651770938904      0.06568277645757
  N   -0.27055137702226      1.63706823533071     -0.09511742600368
