27
Coordinates from ORCA-job mp2_opt
  C   -1.25260480339483      2.59654338502359      0.34529795665574
  C   -0.75779471884022      0.39113842060263      0.05105376263854
  C   -2.11585776394805      0.02866248806360     -0.00668387106302
  C   -3.06069056074723      1.05252355508220      0.10953431856322
  C   -2.62984755430671      2.35301481833890      0.28257544214394
  H   -0.87693874289742      3.60452565739068      0.49499667556147
  C   -2.55627007486349     -1.37517088534799     -0.16424623865901
  H   -4.10985456804330      0.78210999729111      0.06403089425705
  H   -3.33045325528484      3.17366760597039      0.37603576109533
  C   -1.46231101418996     -2.31171311073502     -0.24378290747567
  C   -0.16616392147268     -1.89795511871097     -0.19418854206773
  H   -1.67915362760447     -3.36529934482889     -0.36481376991596
  H   0.65847402692206     -2.59526678776210     -0.28542071410609
  C   1.60777423047761     -0.27678690529918     -0.02714733847135
  C   2.42317004243230     -0.90938055532759      0.90886011760337
  C   2.14768557351769      0.60596461049296     -0.96082232789793
  C   3.79332649306307     -0.65803675225467      0.90798806247621
  H   1.98059780177224     -1.57629045063123      1.64086602996704
  C   3.51510782593439      0.85834282929736     -0.94728411377912
  H   1.49961772115230      1.08307131642483     -1.68528288019494
  C   4.34092257394771      0.22777387412614     -0.01665868627785
  H   4.42838784756279     -1.14726841383698      1.63742633842150
  H   3.93809127605669      1.54371028726403     -1.67260325676954
  H   5.40610935675639      0.42680562282863     -0.01306509345378
  O   -3.74927806881021     -1.68280973112600     -0.21989541925203
  N   0.21631177474928     -0.59400499410983     -0.05514957531060
  N   -0.32782686994112      1.64802958177339      0.23517237531125
