27
Coordinates from ORCA-job mp2_opt
  C   -1.43489994966664      2.57276632446870      0.41110524533953
  C   -0.78879458986829      0.39210903307421      0.16498741133276
  C   -2.11466510394708     -0.02823035710848     -0.05203805741690
  C   -3.11424963956666      0.94928902045648     -0.06333117446766
  C   -2.77678192432373      2.26888939879323      0.15736250039078
  H   -1.13005000098309      3.59310877593776      0.62472156606565
  C   -2.48558307166820     -1.44858217191231     -0.22542694563180
  H   -4.13425098691111      0.62386878180229     -0.23504820979581
  H   -3.52302678772766      3.05377090678993      0.15727047911462
  C   -1.35009262011645     -2.33312674479394     -0.17727266230645
  C   -0.08786207694194     -1.86381665063636      0.00786521893363
  H   -1.49850897737069     -3.39372640897174     -0.33570944389395
  H   0.75530238085381     -2.53760661389416     -0.04417202543462
  C   1.62928844658711     -0.18947612702953      0.14194829987814
  C   2.58100340313861     -1.09245431025290      0.62749888284483
  C   2.05796922598321      0.93170686815804     -0.57556507384825
  C   3.93940790369867     -0.84645485981877      0.45411933697141
  H   2.26968923395828     -1.95451352025269      1.20485922348938
  C   3.41914209605652      1.16705035380739     -0.74363958103088
  H   1.33945828350462      1.61373540463879     -1.00252062130188
  C   4.36807666530541      0.28524731428658     -0.23258902002745
  H   4.65972143370013     -1.54679262631786      0.86069611052776
  H   3.73406086810719      2.04435553992906     -1.29692946774583
  H   5.42581050727294      0.47794202161552     -0.36653259513316
  O   -3.65220264312087     -1.80559979856638     -0.40046101960306
  N   0.24253664739260     -0.54863583315843      0.22813702357089
  N   -0.46280072334667      1.66721227895558      0.42631059917832
