27
Coordinates from ORCA-job mp2_opt
  C   -1.34585322734597      2.58150372713471      0.38979739677312
  C   -0.77122347831397      0.38789430303367      0.10223579506087
  C   -2.11763998690120     -0.00185892204107     -0.03219795319719
  C   -3.09197734406541      0.99929032528976      0.02436715370681
  C   -2.70863147405443      2.30953350928965      0.22662667200033
  H   -1.00355588829194      3.59438424711864      0.58131805615423
  C   -2.53104731546338     -1.41266992888885     -0.19371919373940
  H   -4.12861214234545      0.69992908435140     -0.08353215620840
  H   -3.43420507956317      3.11205152402931      0.27655395019222
  C   -1.41811407440516     -2.32721378698213     -0.21072748568282
  C   -0.13608128756594     -1.88838900210578     -0.09975822517877
  H   -1.60421881578312     -3.38402692085544     -0.35360475950321
  H   0.69368677752681     -2.57752545688453     -0.18706414875132
  C   1.62670336413423     -0.26975627847500     -0.01211768942354
  C   2.08868606827421      0.85724202931302     -0.69377942230999
  C   2.53344255718200     -1.08996708335154      0.66626350750233
  C   3.45587198550974      1.11237243645648     -0.74842082842272
  H   1.39585227086155      1.50761119936799     -1.20596400028984
  C   3.89798949510797     -0.82643799523715      0.60248680771447
  H   2.17115241579044     -1.91614598351398      1.26684132861338
  C   4.36637315857668      0.27762474181476     -0.10470048657744
  H   3.80673207957957      1.97943625548905     -1.29619594043062
  H   4.58988240742683     -1.47247734827188      1.13047227618851
  H   5.42821280142890      0.48883453579620     -0.14853606019425
  O   -3.71430362985482     -1.73998114399961     -0.30587965307591
  N   0.23331505051165     -0.58084291232077      0.09145495126483
  N   -0.39601368795662      1.65393984444309      0.33798910781434
