27
Coordinates from ORCA-job mp2_opt
  C   -1.22559117650791      2.60068056386632     -0.32232366878491
  C   -0.75284593380066      0.39033325260711     -0.03532965694937
  C   -2.11397658142579      0.03761615474124      0.00348080384400
  C   -3.04926633477926      1.06926600608341     -0.12057275537509
  C   -2.60543944214568      2.36712550995083     -0.28127207341971
  H   -0.84034952033527      3.60677032598244     -0.45994830628840
  C   -2.56536192010885     -1.36397483306184      0.15070613249264
  H   -4.10117868910079      0.80749098834256     -0.09022224931628
  H   -3.29815031294642      3.19381077818609     -0.38043608643824
  C   -1.47907153677404     -2.30908495375195      0.23769755082576
  C   -0.17938338596010     -1.90424690333650      0.20473033767105
  H   -1.70493274282249     -3.36200176301096      0.34745402922343
  H   0.64055188260326     -2.60755881275628      0.29448440531826
  C   1.60493070255514     -0.29184911276901      0.04298422865618
  C   2.39449793459917     -0.86228514060745     -0.95258712095508
  C   2.16579416853825      0.53617875155350      1.01284669258043
  C   3.76423167024108     -0.60887783720482     -0.97057409234437
  H   1.93220309772130     -1.48569147466002     -1.71042323568831
  C   3.53227987178362      0.79208713355512      0.98072551234949
  H   1.53288844432206      0.96952879892556      1.77760276089811
  C   4.33397444996022      0.21988230477763     -0.00704672462971
  H   4.38169341730901     -1.05082534906142     -1.74394894107248
  H   3.97351964196566      1.43459479056463      1.73387015056961
  H   5.39873805527939      0.42055408860403     -0.02516723942325
  O   -3.76098357767891     -1.66361438672152      0.19078552149029
  N   0.21181608382113     -0.60175844494952      0.08279272871111
  N   -0.30941026631312      1.64464656415082     -0.20431770394515
