27
Coordinates from ORCA-job mp2_opt
  C   -1.14490510164507      2.61664233862033      0.14324331006657
  C   -0.73822299387118      0.38065440473900      0.00679432288753
  C   -2.10782432677300      0.06211391179104      0.00042131532669
  C   -3.01310034501848      1.12523529699133      0.06703212424704
  C   -2.53115283000407      2.41783426778816      0.13821947397785
  H   -0.73236563085419      3.61939776614680      0.20337316949405
  C   -2.59207842637949     -1.33482519511200     -0.06596778976265
  H   -4.07228152574003      0.89249816058814      0.06180416948257
  H   -3.20010726398854      3.26798841676234      0.19157486843748
  C   -1.52903949047178     -2.31004621669499     -0.11076156532057
  C   -0.21898757628657     -1.93627813591773     -0.10568344625361
  H   -1.78289734236616     -3.36131610862414     -0.15492017851058
  H   0.58623978862326     -2.66134815420076     -0.14566676695313
  C   1.59637332704717     -0.34059603248121     -0.03344095680883
  C   2.30081875495328     -0.49047670530556      1.15717299909160
  C   2.23030656982841      0.08875297567350     -1.19556276250469
  C   3.66663147039328     -0.21771524074086      1.17953420889001
  H   1.77632952217683     -0.81049173273053      2.05091052314637
  C   3.59382371611562      0.36468907959830     -1.16381261421789
  H   1.65215350491443      0.20791630630408     -2.10485398767810
  C   4.31240466997053      0.21139905878681      0.02154757218022
  H   4.22318411746454     -0.33263859790225      2.10236333895564
  H   4.09553772620567      0.69996112734760     -2.06414855353071
  H   5.37417283899305      0.42732607011091      0.04248240490570
  O   -3.79483326193614     -1.60819731864274     -0.07841593301494
  N   0.19789517881673     -0.63871110667385     -0.06234840793135
  N   -0.25552007016814      1.63015236377830      0.07885416139774
