27
Coordinates from ORCA-job mp2_opt
  C   -1.46570744565458      2.56882789852698      0.42660126219349
  C   -0.79173262494334      0.39068234775360      0.19896734721116
  C   -2.10576822381963     -0.03269789067354     -0.07755795612496
  C   -3.10841027095412      0.93988943389523     -0.13624437356625
  C   -2.79075607446613      2.26100151953518      0.10185080418530
  H   -1.17706054096646      3.58856867061139      0.66431807185091
  C   -2.47069644906395     -1.45336653161739     -0.25413809444651
  H   -4.11709102772534      0.60761995664657     -0.35517591761185
  H   -3.54040033375337      3.04178923626172      0.06662077630084
  C   -1.34105987157430     -2.33582435398735     -0.12573510104997
  C   -0.08788615340193     -1.86260409819947      0.10191189113117
  H   -1.48097591270289     -3.40013974758205     -0.26638110571669
  H   0.74574060277931     -2.54719084039116      0.09277322989108
  C   1.63635761184905     -0.18925999511752      0.19216926949333
  C   2.60812290664574     -1.14104481006503      0.52854059344610
  C   2.04940205948911      0.98930267988986     -0.44038696435278
  C   3.95805646825346     -0.88952971840100      0.30706700966845
  H   2.33420491844032     -2.05182776842475      1.04494019838842
  C   3.40280830002616      1.22814074473208     -0.66126440607140
  H   1.32561118184343      1.72061850091768     -0.75956051651027
  C   4.36808395916454      0.29665959688833     -0.29251831791232
  H   4.68686497207461     -1.63400084065564      0.60580047095338
  H   3.69511900483224      2.15246701414328     -1.14633741564313
  H   5.41949360019265      0.49197895701193     -0.46592378531122
  O   -3.62581857496518     -1.81143546712865     -0.49036185079655
  N   0.24539842285740     -0.54403936100448      0.31315249775915
  N   -0.49237650445680      1.66663986643422      0.48772238264109
