27
Coordinates from ORCA-job mp2_opt
  C   -1.45456204400420      2.57812754201472     -0.35750247289490
  C   -0.79235486150869      0.39272355575694     -0.13271024998087
  C   -2.12344115894594     -0.02966982445696      0.06127246489535
  C   -3.12587619063940      0.94417640703215      0.08028222764014
  C   -2.79558779934439      2.26927368153896     -0.11425857561185
  H   -1.14975029174894      3.60112786068437     -0.55839685629552
  C   -2.50928870771981     -1.44931182280335      0.19864268939608
  H   -4.14527757524426      0.60896894409525      0.23589262178954
  H   -3.54521035017320      3.05077732450686     -0.10583359012796
  C   -1.37734851680152     -2.33483938362744      0.14655750960736
  C   -0.11274992119786     -1.86442764946425     -0.00434389920349
  H   -1.52760923033103     -3.39826802208120      0.28320540863681
  H   0.71253461721638     -2.55500589206749      0.06419962322211
  C   1.64306416704567     -0.23812451098367     -0.01412404094681
  C   2.10581219042254      1.02410232141786      0.37458279728700
  C   2.59276881645985     -1.19481717502659     -0.40964778061350
  C   3.47339189489261      1.26512336313679      0.48840924929414
  H   1.41113737548699      1.80440625627816      0.63196024538379
  C   3.95444507044961     -0.94089187412211     -0.29704197808682
  H   2.28786242157912     -2.13557068350784     -0.84690135529946
  C   4.40948033399743      0.29192362136429      0.15965562855590
  H   3.79910629329142      2.24332985967152      0.82345132634613
  H   4.65798611988653     -1.70663920657621     -0.60261484387233
  H   5.47071524063960      0.49367372184767      0.24138501650713
  O   -3.67954466785522     -1.80304924520165      0.35070069245734
  N   0.24682725020233     -0.54866982037937     -0.20960310249662
  N   -0.48164747605561      1.67367265095260     -0.38071475558869
