27
Coordinates from ORCA-job mp2_opt
  C   -1.20116749863462      2.60649670792293     -0.26780035733186
  C   -0.74906876402075      0.38854562171986     -0.01692156805309
  C   -2.11239591520501      0.04408938246514      0.00037903115467
  C   -3.03881932697298      1.08427012531662     -0.11851229937937
  C   -2.58311109116538      2.38123835658100     -0.25176149542875
  H   -0.80800550266002      3.61259686911786     -0.38032550411565
  C   -2.57188360550312     -1.35721681002651      0.12307226698334
  H   -4.09295747483221      0.83002549015914     -0.10527497150323
  H   -3.26872142829631      3.21431329622100     -0.34691573623976
  C   -1.49162989704971     -2.30983327620521      0.20770322993650
  C   -0.18906069948083     -1.91219350383334      0.19240621861009
  H   -1.72567097721146     -3.36300483082196      0.29576716111072
  H   0.62785306397755     -2.62076904168417      0.26969166497090
  C   1.60098572936839     -0.29989043012123      0.04932644779576
  C   2.19686425716983      0.39217555950714      1.10037715778204
  C   2.35175423543869     -0.73622104096278     -1.03884460954258
  C   3.56292018980351      0.64992191793025      1.05647343986911
  H   1.58847918991936      0.72388516820140      1.93353195682082
  C   3.72124045854733     -0.48254627392414     -1.07022552484672
  H   1.85973495199014     -1.25941832397937     -1.85182210634062
  C   4.32699149763282      0.21114095326003     -0.02507040882250
  H   4.03324896033171      1.18867198712742      1.87090346411598
  H   4.31119918101138     -0.82038862223403     -1.91427771344542
  H   5.39187907700167      0.41022240039232     -0.05246648021735
  O   -3.76946668284894     -1.65144127742029      0.14654259118489
  N   0.20723636467775     -0.60965539170833      0.10056252124769
  N   -0.29268229298880      1.64234398699926     -0.15384137631561
