27
Coordinates from ORCA-job mp2_opt
  C   -1.36883786927642      2.57996896411687      0.38699925982945
  C   -0.77544613959206      0.38851590054500      0.10934342568412
  C   -2.11866078310438     -0.00876978500991     -0.03697444348913
  C   -3.09971222441419      0.98650365588463      0.00519316414441
  C   -2.72760386411759      2.29985886297245      0.20716489807251
  H   -1.03468203414325      3.59494792506153      0.58181136291410
  C   -2.52507647481467     -1.42186679271326     -0.19369152054664
  H   -4.13305002201061      0.67948777337796     -0.11231195249334
  H   -3.45882379275207      3.09784014643518      0.24618495097568
  C   -1.40732633166031     -2.32992263264126     -0.19878354150081
  C   -0.12900449784591     -1.88382063607150     -0.07919040603747
  H   -1.58550066994498     -3.38796457758710     -0.34287526773274
  H   0.70161069632652     -2.57122778317141     -0.16529457419514
  C   1.63001178674698     -0.26337628976762     -0.00869466669546
  C   2.08705543405917      0.89510305875466     -0.64009366337561
  C   2.54814016450515     -1.11160488328741      0.62072949002440
  C   3.45449337625484      1.14792733132937     -0.70659741227903
  H   1.39140555356812      1.57251998652538     -1.11016817537372
  C   3.91197474180824     -0.84917782248673      0.54675036804653
  H   2.19778070241578     -1.96055499117781      1.19550631565820
  C   4.37372032934019      0.28378267964578     -0.11755933637870
  H   3.79750384787321      2.03957144648713     -1.21879056333421
  H   4.60885736010283     -1.51943694642305      1.03658962848725
  H   5.43530440472652      0.49445039258978     -0.16870491373627
  O   -3.70573461941047     -1.75538601793770     -0.31352967029046
  N   0.23664658860199     -0.57448079293781      0.11800210005806
  N   -0.41325866324265      1.65766382748685      0.34941014356400
