27
Coordinates from ORCA-job mp2_opt
  C   -1.36544525736408      2.58227069961626      0.39312333940017
  C   -0.77795466293201      0.39342978342621      0.11451455745729
  C   -2.11950109155654     -0.00779454094435     -0.02737551947069
  C   -3.10131385439703      0.98612748869536      0.02680696576508
  C   -2.72637534403772      2.29885277247250      0.23034948411376
  H   -1.03163929519606      3.59878479658802      0.57990371175259
  C   -2.51451087381617     -1.42264515119074     -0.20008338271567
  H   -4.13570666925565      0.68075589912713     -0.08562658254019
  H   -3.45755857179002      3.09637363605448      0.27861195089901
  C   -1.39069965899572     -2.32467889294704     -0.22476242981820
  C   -0.11291547919679     -1.87465182002834     -0.10066219592677
  H   -1.56624606027781     -3.38190102029360     -0.37746966572126
  H   0.72810964340482     -2.55140370046497     -0.18091775181626
  C   1.61986374772764     -0.21660850036381      0.06238902748728
  C   2.52394028271551     -1.02820552633082      0.74988492615006
  C   2.08821800552697      0.81817796778543     -0.74973365433110
  C   3.89113240910818     -0.78346744685628      0.65444906928004
  H   2.15647257206586     -1.81853360924526      1.39457105813055
  C   3.45597702426372      1.05618613096225     -0.83489489764823
  H   1.39170025953145      1.42437113355561     -1.31139786097546
  C   4.36274694811090      0.26046129756452     -0.13643749634851
  H   4.58394940292810     -1.40933495734700      1.20496945115361
  H   3.81337834288542      1.86263586511271     -1.46475726561302
  H   5.42663320027026      0.45290643808716     -0.20856108044858
  O   -3.69383882580247     -1.76357865680432     -0.31582561477728
  N   0.23369676843327     -0.56423213209108      0.09549274466281
  N   -0.40785296235403      1.66222204585997      0.34392111189896
