27
Coordinates from ORCA-job mp2_opt
  C   -1.46942064546084      2.57820742020798      0.35970912789809
  C   -0.79544223341084      0.39377064519576      0.13739954402958
  C   -2.12471444199820     -0.03016110295960     -0.06948470282354
  C   -3.12976885537856      0.94067114491845     -0.09664551792493
  C   -2.80672069317798      2.26660217664542      0.10286743133357
  H   -1.16890302499191      3.60143340825269      0.56601155216193
  C   -2.50992898370090     -1.44898004644253     -0.21050140306244
  H   -4.14623296930634      0.60129838172864     -0.26225198300797
  H   -3.55907143823596      3.04540466836051      0.08875926999615
  C   -1.37887106672912     -2.33280827586756     -0.14122977734006
  C   -0.11596759587409     -1.86153030135458      0.01939306681568
  H   -1.52709815677395     -3.39722263836570     -0.27271606368052
  H   0.70306157830318     -2.55867418440051     -0.03714866560927
  C   1.64733661216880     -0.23631000953558      0.02397300324814
  C   2.11912407884254      1.04836253447501     -0.27487440964494
  C   2.60038186665398     -1.22368560097176      0.33085457431853
  C   3.48625213884869      1.28787836969055     -0.39721747774013
  H   1.42806515602585      1.85239855599961     -0.45427604515601
  C   3.96182000245269     -0.97044280841453      0.21260229240962
  H   2.30783475147496     -2.19471076827717      0.70330939291269
  C   4.42108963441054      0.28819601579861     -0.16063326676018
  H   3.81184730427251      2.28746214601168     -0.66207923602119
  H   4.66289736927129     -1.76294481505311      0.44772042450895
  H   5.48237753894088      0.48732367831740     -0.24780282750177
  O   -3.67820588534401     -1.80323181523272     -0.37692411585953
  N   0.24778503076618     -0.54583086248437      0.22099620028353
  N   -0.49465807204937      1.67592308375742      0.39109761221602
