27
Coordinates from ORCA-job mp2_opt
  C   -1.30236315563603      2.58521574130081     -0.38974476117070
  C   -0.76371615355832      0.38729648322338     -0.08778597223981
  C   -2.11581633168682      0.01184608525553      0.02320032891364
  C   -3.07686933458354      1.02386443367135     -0.06009545203168
  C   -2.67211278727570      2.32822895236563     -0.26073861487135
  H   -0.94470318761134      3.59438758011473     -0.57232013304331
  C   -2.54275283409830     -1.39443571910283      0.19278476941148
  H   -4.11937755740380      0.73882612202100      0.02832285520151
  H   -3.38658096759572      3.13911413543066     -0.33129010396760
  C   -1.43921562325346     -2.32074328317175      0.23334786201070
  C   -0.15044415457867     -1.89556509543878      0.13887138499124
  H   -1.63996548983529     -3.37513580034838      0.37389672293493
  H   0.67686927863759     -2.58875736964973      0.22791039356147
  C   1.61975394221654     -0.28017153126391      0.01713276926777
  C   2.09935426568001      0.77245678493450      0.79678537083606
  C   2.49899689541671     -1.03709291522682     -0.75927131398291
  C   3.46626823585390      1.02982341308934      0.82891459571825
  H   1.41603980047751      1.36423782530388      1.38950662822269
  C   3.86519857104682     -0.77384728925930     -0.71589982302477
  H   2.11092837670640     -1.81175680873225     -1.41102409807230
  C   4.35347522113610      0.26148773560358      0.07698090553630
  H   3.83730232651669      1.83981475829698      1.44620499267777
  H   4.54265598683784     -1.36651649024789     -1.31974736558730
  H   5.41618284739976      0.47114313915112      0.10613096762638
  O   -3.73059144506362     -1.70985284475717      0.29255544285834
  N   0.22639331165471     -0.59127904960742     -0.04007413653038
  N   -0.36384903740000      1.64774600704375     -0.31171521524644
