27
Coordinates from ORCA-job mp2_opt
  C   -1.39106583613384      2.57852786513227     -0.38341181238155
  C   -0.77962562624313      0.38909819875027     -0.11626192685739
  C   -2.11962391416585     -0.01514800620676      0.04238226699070
  C   -3.10685458060193      0.97445528960956      0.01468287781511
  C   -2.74563574173934      2.29074138497114     -0.18705682779365
  H   -1.06474010247768      3.59547217846906     -0.58125994591252
  C   -2.51962476572331     -1.43025022618578      0.19493062625717
  H   -4.13681992285743      0.66014453090598      0.14199503285834
  H   -3.48206807671920      3.08436152772352     -0.21515043384930
  C   -1.39747081406348     -2.33215706236216      0.18725076965455
  C   -0.12287378303992     -1.87922368446594      0.05856354021987
  H   -1.56787125151850     -3.39138778156347      0.33218101193827
  H   0.70791875266411     -2.56566756432025      0.14252749468193
  C   1.63314046002630     -0.25718543264818      0.00487138922798
  C   2.08747130005969      0.92988718369880      0.58421966448143
  C   2.56127081328815     -1.13170648256447     -0.57481646317802
  C   3.45508107238645      1.18027272640358      0.66258395897612
  H   1.39002427388356      1.63313979312984      1.01003694164494
  C   3.92441168717465     -0.87056601391505     -0.49106127880583
  H   2.22244993177040     -2.00243469976623     -1.12255979930400
  C   4.38130452958718      0.28888794505756      0.12911037513701
  H   3.79151881981073      2.09463118556525      1.13781729735369
  H   4.62507191177661     -1.56379848145516     -0.94195575490964
  H   5.44267784431119      0.49857117675914      0.18737835193311
  O   -3.69761104651020     -1.76950191865372      0.32291561613629
  N   0.23970915065368     -0.56817014782504     -0.14420423296484
  N   -0.43031108559889      1.66117651575621     -0.36022073934978
