27
Coordinates from ORCA-job mp2_opt
  C   -1.16764732257961      2.61597123460663      0.16669337030917
  C   -0.74350342653975      0.38459948661220      0.01079356812658
  C   -2.11054555734290      0.05552649399428     -0.00037075501377
  C   -3.02421157447055      1.11092692642446      0.07410314097051
  C   -2.55230690766321      2.40649316618379      0.15746461252943
  H   -0.76299754179455      3.62131037144782      0.23670452223943
  C   -2.58358288630864     -1.34457947679278     -0.07889944905743
  H   -4.08156835336612      0.87015836996036      0.06534278419608
  H   -3.22782954335208      3.25102071452575      0.21727196146180
  C   -1.51276104448001     -2.31099846928223     -0.12896027488589
  C   -0.20568799053028     -1.92707303700609     -0.11911238020364
  H   -1.75807162413776     -3.36391096583675     -0.18173634826354
  H   0.60522440896306     -2.64545663289549     -0.16397215221952
  C   1.59707187238131     -0.31862868375099     -0.03190057036140
  C   2.22881433882760      0.13052908256949     -1.18783832412848
  C   2.30855625426374     -0.51056239546558      1.14845474302713
  C   3.59422220331552      0.39661764111206     -1.15665121972463
  H   1.64708382753539      0.27406348781887     -2.09128420736402
  C   3.67643214857892     -0.24786380172900      1.17001165408986
  H   1.78747177558541     -0.85297344590630      2.03590376930777
  C   4.31856493484518      0.20722166057378      0.02003120069603
  H   4.09371917215870      0.74922182685748     -2.05159324891113
  H   4.23787231270921     -0.39341268967164      2.08552797447367
  H   5.38209929647127      0.41437689314704      0.04012544367393
  O   -3.78406026537683     -1.62737216008837     -0.09626877340799
  N   0.20086166803124     -0.62655438320777     -0.06567563713245
  N   -0.27049617572425      1.63705878579899      0.09496759557252
