27
Coordinates from ORCA-job mp2_opt
  C   -1.28310367063333      2.58770074631170      0.38458799246402
  C   -0.76071994494158      0.38756144086800      0.07922804371405
  C   -2.11525360068500      0.01823556876055     -0.01886135311627
  C   -3.07014625134123      1.03497627230933      0.07626983937287
  C   -2.65572564214813      2.33697832385196      0.27338415384268
  H   -0.91861913125075      3.59552456673163      0.56078720225065
  C   -2.54828971822877     -1.38608072693481     -0.19030439590316
  H   -4.11514890479098      0.75606970669233     -0.00163194833114
  H   -3.36506292659711      3.15154064544168      0.35274663327225
  C   -1.44904522697419     -2.31733829803042     -0.24181685623048
  C   -0.15730166837855     -1.89791031005534     -0.15731883846650
  H   -1.65636533536911     -3.37083737344560     -0.37932997808454
  H   0.66857413918449     -2.59319233979369     -0.24711851521981
  C   1.61624968414966     -0.28362810867065     -0.02010460239915
  C   2.10923727025552      0.72638440820594     -0.84576283967810
  C   2.47917517523620     -1.00582198171378      0.80448705349853
  C   3.47612099444951      0.98387510058004     -0.86543519193563
  H   1.43347891837871      1.28710327562647     -1.47723662130712
  C   3.84637111461705     -0.74428442360937      0.77241209571971
  H   2.07687809904476     -1.75191727865664      1.48073826846250
  C   4.34856362604009      0.25191775668735     -0.06104199669002
  H   3.85972976688187      1.76187645964845     -1.51527028727484
  H   4.51380203993538     -1.30843147436497      1.41356662460767
  H   5.41184400334431      0.45970656282274     -0.08160024020227
  O   -3.73830560022119     -1.69681092458714     -0.28034028556555
  N   0.22298105974733     -0.59476210460996      0.01346395531448
  N   -0.34980726970495      1.64583050993423      0.29504008788516
