27
Coordinates from ORCA-job mp2_opt
  C   -1.16197379004035      2.61413631571606      0.20506596264183
  C   -0.74141340452715      0.38499597264566      0.00913045464037
  C   -2.10919462341817      0.05839007362615      0.00089556337451
  C   -3.02093955795695      1.11370880888340      0.09678696545018
  C   -2.54695182376353      2.40711698328160      0.19847307487043
  H   -0.75530324600795      3.61744029145623      0.29082758980960
  C   -2.58652929697395     -1.33931276855741     -0.09330255659786
  H   -4.07857821116277      0.87412863837899      0.09023232486985
  H   -3.22094472529009      3.25147473549326      0.27517687839456
  C   -1.51855639338948     -2.30754984329360     -0.16003745966770
  C   -0.21080487283568     -1.92643674609484     -0.15328510773989
  H   -1.76643402843729     -3.35919854085532     -0.22474714684050
  H   0.59771614115078     -2.64641211583767     -0.21260332210125
  C   1.59789658187726     -0.32893958118338     -0.04701673594307
  C   2.31991720158000     -0.61321542528184      1.10830826506261
  C   2.21628003891441      0.23067026226235     -1.16133346616148
  C   3.68768044508407     -0.35077828384131      1.13993616506953
  H   1.80768360004513     -1.03022836244989      1.96869569094341
  C   3.58092608814854      0.49779826895362     -1.11876714239200
  H   1.62584984433164      0.45370278964682     -2.04252565535576
  C   4.31792252923454      0.20540333028521      0.02872196464483
  H   4.25726861321344     -0.57200767130967      2.03500696761598
  H   4.07010029558356      0.93326276154158     -1.98237922813704
  H   5.38125565055696      0.41256651276673      0.05670325817984
  O   -3.78782306806216     -1.61860473926846     -0.10871396595094
  N   0.20055419038732     -0.62753155228862     -0.08844081737218
  N   -0.26672217824211      1.63523888532435      0.11265947869216
