27
Coordinates from ORCA-job mp2_opt
  C   -1.13517503002734      2.61731775718095      0.07723036231998
  C   -0.73662364560810      0.37689478808755      0.01018228392903
  C   -2.10714089657762      0.06298730319166     -0.00218221767197
  C   -3.00868751114907      1.13099518017598      0.02600559368658
  C   -2.52211136176737      2.42331774927938      0.06559148633470
  H   -0.71927319524062      3.61992427961115      0.11070267590746
  C   -2.59472460557312     -1.33388954521436     -0.04017284899027
  H   -4.06877513804470      0.90255009263604      0.01613170678108
  H   -3.18815219052642      3.27713121631922      0.08846470168631
  C   -1.53418981989425     -2.31305116755175     -0.05482081204803
  C   -0.22285242171653     -1.94339634186812     -0.04419606342573
  H   -1.79108033701147     -3.36424105194264     -0.07860496736135
  H   0.58073423179349     -2.67125362557133     -0.06004975287707
  C   1.59496691252531     -0.34586509175180     -0.00993549795868
  C   2.28540257311558     -0.34070162020230      1.19791489797847
  C   2.24240800418468     -0.07093194555341     -1.21061250351229
  C   3.64948836436329     -0.05983495032309      1.20080012579322
  H   1.75104457918024     -0.54667809369135      2.11878843070435
  C   3.60533902854040      0.21123700699633     -1.19929106120579
  H   1.67471138669921     -0.07205314215641     -2.13440026852299
  C   4.30885300149631      0.21756857252148      0.00449859625024
  H   4.19515787667844     -0.05239907175524      2.13720993816528
  H   4.11730829989510      0.42844853573600     -2.12959628359694
  H   5.36963810784604      0.43915202526843      0.01018360850635
  O   -3.79814946297423     -1.60420759864790     -0.05655030878356
  N   0.19638165109203     -0.64648791803624     -0.01941684714179
  N   -0.24914340129928      1.62610565726180      0.05008102505343
