27
Coordinates from ORCA-job mp2_opt
  C   -1.16170725980583      2.61429116697273     -0.20518497387965
  C   -0.74138261615880      0.38511349339723     -0.00921985225859
  C   -2.10919860899718      0.05865805079924     -0.00085512541880
  C   -3.02083819757692      1.11407203762181     -0.09671670491159
  C   -2.54670623931334      2.40742336123322     -0.19848550143544
  H   -0.75492563716540      3.61754687382668     -0.29100960197895
  C   -2.58666976308386     -1.33899413784970      0.09342357649747
  H   -4.07850647793642      0.87462104513920     -0.09007989910509
  H   -3.22060892355477      3.25185731104260     -0.27517023769238
  C   -1.51879720720728     -2.30734999174008      0.16006039431946
  C   -0.21100433826847     -1.92637645307299      0.15319435319834
  H   -1.76675906928153     -3.35897858809652      0.22478710039384
  H   0.59744474729189     -2.64643894669436      0.21246142449738
  C   1.59785789717745     -0.32905720447608      0.04694624422554
  C   2.31989890688079     -0.61328711691851     -1.10836233014235
  C   2.21623314555663      0.23036608261797      1.16136250296844
  C   3.68769891697344     -0.35099647657143     -1.13988469852478
  H   1.80766748250111     -1.03014931297086     -1.96882491711305
  C   3.58091419853857      0.49734255345379      1.11890976037276
  H   1.62577079569726      0.45336659655566      2.04254279319863
  C   4.31794186313593      0.20498894673020     -0.02857246993675
  H   4.25731153166542     -0.57219216856366     -2.03495037720743
  H   4.07009197091518      0.93265400062362      1.98259880340605
  H   5.38130199969394      0.41203225592868     -0.05647077486190
  O   -3.78799215235575     -1.61814637819962      0.10899057498134
  N   0.20048258161718     -0.62751497989258      0.08829367611474
  N   -0.26655454693925      1.63529997910377     -0.11282073970724
