27
Coordinates from ORCA-job mp2_opt
  C   -1.45468435454945      2.57799916294362      0.35779148930280
  C   -0.79237489523042      0.39265317758484      0.13269326552735
  C   -2.12343066506716     -0.02975437318524     -0.06146987871322
  C   -3.12589808210799      0.94405808255561     -0.08040926687097
  C   -2.79567740032396      2.26913486162244      0.11437753850660
  H   -1.14992910228712      3.60097771253500      0.55888373631899
  C   -2.50921427563230     -1.44938695307337     -0.19909598607837
  H   -4.14527248624319      0.60883770148955     -0.23616967465836
  H   -3.54532642685855      3.05061440846093      0.10601325853042
  C   -1.37724768967034     -2.33488026680903     -0.14708133198876
  C   -0.11267627519463     -1.86444896377993      0.00399495031982
  H   -1.52746054567728     -3.39829239400783     -0.28391480146165
  H   0.71263908617152     -2.55498631549379     -0.06461041745768
  C   1.64307519934920     -0.23808223748334      0.01417534548679
  C   2.10580405188307      1.02423019282352     -0.37428218030201
  C   2.59278303188704     -1.19481941070570      0.40959230007435
  C   3.47338219087793      1.26531281784368     -0.48798848668936
  H   1.41111593143566      1.80455162080653     -0.63157506658150
  C   3.95446086390854     -0.94083321442174      0.29709344780260
  H   2.28787878928451     -2.13566651996528      0.84664834834339
  C   4.40948176843712      0.29208568307720     -0.15935041159911
  H   3.79908462045133      2.24359191941698     -0.82283181888127
  H   4.65801256212727     -1.70661205621408      0.60256587381019
  H   5.47071519868399      0.49387873639739     -0.24099991570566
  O   -3.67945082021909     -1.80314698937910     -0.35128920449530
  N   0.24683555169090     -0.54871211227908      0.20950182157021
  N   -0.48173482712656      1.67357572924020      0.38094206588970
