19
Coordinates from ORCA-job mp2_opt
  C   -0.40913139083583     -0.00508434859726     -0.02371667120896
  C   -1.10380652963883      1.17205647736479     -0.30227072498210
  C   -1.09829222936516     -1.18100395455309      0.27264896110449
  C   1.81749581548226      0.98177227143714      0.47021025367153
  H   1.41557455567851      1.86885326526704      0.93524792539691
  C   -2.49531782526962      1.16957403463091     -0.27425757739949
  H   -0.55571352693433      2.06987566015225     -0.56333811172507
  C   -3.19176050275355     -0.00305888512683      0.01192515770013
  H   -3.03500885375175      2.08383467241917     -0.49186883925634
  C   -2.48981868671211     -1.17694496887100      0.27983468173721
  H   -4.27512009422823     -0.00245858738571      0.02513672069180
  H   -3.02506927111308     -2.09071360153677      0.51024261053836
  H   -0.54469213088418     -2.07979343278988      0.51844063855912
  N   3.09616170357579      0.67260584883042      0.35383918201493
  C   1.82958398737085     -1.00294782344684     -0.48499155629143
  H   1.43803270103248     -1.88455142531409     -0.96473336350766
  C   3.11091704337893     -0.55983743493774     -0.24751083389497
  H   4.03628216430894     -1.06164756123137     -0.48307320986169
  N   1.00409407065890     -0.00122620631111     -0.02793224328680
