23
Coordinates from ORCA-job opt
  C   1.06320433048140      0.54976156050374     -0.25118356204398
  C   -0.35249195230466      0.24203407201778     -0.42331434876128
  C   1.77117699451397      0.18755261401254      0.90402151592542
  C   1.75962595462451      1.18548422090984     -1.28980789608878
  N   -1.31282138657320      0.44929433264758      0.54189290154387
  C   -0.98808004318986     -0.33062439140939     -1.52290164961889
  C   -1.12140244320878      1.09375941562950      1.82639891971448
  C   -2.52674963083860      0.02212410884269      0.07561312603574
  H   -0.29305468997066      1.79733781898052      1.76198708099791
  H   -2.02951596625300      1.63732174909451      2.08445331602847
  H   -0.90874478290728      0.36528864164231      2.61095711487675
  C   -2.35310539205015     -0.47369463171432     -1.20612153111391
  H   -3.41227588551549      0.12280961647332      0.68422258249917
  H   -3.12549991175235     -0.89640835192071     -1.82988066078756
  H   -0.48827062503447     -0.63893314141682     -2.42894615517390
  C   3.12941075465989      0.46889966057787      1.02334170361739
  H   1.26075874072160     -0.34472899007019      1.69943682437246
  C   3.81006867248301      1.10019550666680     -0.01597469078678
  H   3.66108517501903      0.17813906529739      1.92274596953534
  C   3.12058337556653      1.45122149660028     -1.17574169921081
  H   4.86869539154945      1.31422179126986      0.07596556694734
  H   3.64193237697196      1.94414813074152     -1.98889000741149
  H   1.21507094300715      1.48069670462336     -2.18047442109697
