23
Coordinates from ORCA-job opt
  C   1.06273361945486      0.55293204391610     -0.24983654433792
  C   -0.35335012238430      0.24724136632043     -0.42200749405761
  C   1.77179506615736      0.18823799018620      0.90385847426694
  C   1.75894317407565      1.18901599488797     -1.28851375173932
  N   -1.31531250356550      0.45267808404937      0.54147591612842
  C   -0.98545789247093     -0.33041995267612     -1.52117167633115
  C   -1.12515021946680      1.09621774813652      1.82649275669322
  C   -2.52723505134413      0.01967568021582      0.07485839798592
  H   -0.30940308591878      1.81419338234884      1.75852455622575
  H   -2.04063137117938      1.62301680803000      2.09299891456829
  H   -0.89430859251704      0.36915320773289      2.60715499826374
  C   -2.35005873379516     -0.47852420230851     -1.20569643510799
  H   -3.41369622849638      0.11826617944703      0.68243823384729
  H   -3.11856890879368     -0.90765248375809     -1.82997382138343
  H   -0.48322458469147     -0.63896559178065     -2.42580203685793
  C   3.13069664088751      0.46712541326397      1.02166583412079
  H   1.26181340121943     -0.34435844961703      1.69933125648014
  C   3.81103499060181      1.09873804127915     -0.01766773651489
  H   3.66298209362270      0.17431002417000      1.92003895370820
  C   3.12053904279678      1.45235732765975     -1.17603727404869
  H   4.87013227506335      1.31093101523012      0.07315842214962
  H   3.64149392790830      1.94549760767489     -1.98931523508813
  H   1.21383206283579      1.48623176559136     -2.17817570897127
