23
Coordinates from ORCA-job opt
  C   1.03209620045251      0.82809351401747      0.25968818689176
  C   -0.40730144570539      0.73094741254324      0.47634799129435
  C   1.82599895376630     -0.29713619005480     -0.00581521343157
  C   1.65998722183432      2.07787943483992      0.36824185639345
  N   -1.26436113114791     -0.00461540952874     -0.31111867691645
  C   -1.16553664204352      1.28931155802763      1.50332642255360
  C   -0.92628408685051     -0.70237392541685     -1.53610498042655
  C   -2.53335709638162      0.07890508357455      0.19544274225940
  H   -0.07480552058240     -0.21641713266458     -2.00961610597851
  H   -0.67735558922712     -1.74772756751576     -1.34442445874081
  H   -1.77995892110006     -0.65954424206073     -2.21149416416644
  C   -2.50003657341814      0.87443570583888      1.32919598986680
  H   -3.35386515699105     -0.41572887938723     -0.30132754058359
  H   -3.34261878074565      1.11413034343817      1.95941223803139
  H   -0.76458153188492      1.89398415753048      2.30293306905210
  C   3.20230985573381     -0.17296582282736     -0.17473181091132
  H   1.36559524630292     -1.27831061829403     -0.04954933379407
  C   3.81411918394246      1.07408085995853     -0.06346971860898
  H   3.80018453779729     -1.05507375319369     -0.37619596780222
  C   3.03766412958738      2.19794074004416      0.21532081588948
  H   4.88645432676152      1.16882728042800     -0.19027618589315
  H   3.50493672412966      3.17266996378876      0.30220201014073
  H   1.05031909577014      2.95458648691397      0.55981183488060
