23
Coordinates from ORCA-job opt
  C   1.01497894515538      0.87477569931543     -0.17911898621161
  C   -0.43749953194396      0.80838943574599     -0.30282371631757
  C   1.64551631898122      2.12381401083877     -0.08378096508380
  C   1.81286358992949     -0.27861751260636     -0.18811438058175
  N   -1.23445046100083     -0.06535862170991      0.40267552395728
  C   -1.26859756504888      1.52692213731537     -1.15933797310946
  C   -0.80817833505517     -0.96011937790016      1.46105051503302
  C   -2.53674397482935      0.08766287227911      0.01018235874276
  H   -1.60554946873623     -1.03541094980569      2.19954784750655
  H   -0.58584538953273     -1.95685634565904      1.07560917800325
  H   0.08295742952470     -0.55868491732000      1.94054115836966
  C   -2.58674040369670      1.06904626059578     -0.96610751555399
  H   -3.31871534095424     -0.49651821151963      0.47059107930533
  H   -3.47363605230062      1.40065310488985     -1.48366317821082
  H   -0.92737195812461      2.26714626020255     -1.86748623647604
  C   3.03157578626357      2.21638284192019     -0.00468802040578
  H   1.03228449019341      3.01852640904911     -0.06047527233966
  C   3.81353854454789      1.06222844363519     -0.00199878756016
  H   3.50200819163957      3.19075505165375      0.06804850940102
  C   3.19854580535727     -0.18509098344418     -0.09258960153487
  H   4.89287537219470      1.13429906000941      0.06754204004424
  H   3.80035826648993     -1.08720705363088     -0.10566369107085
  H   1.34542674094619     -1.25083361385466     -0.30214288590675
