23
Coordinates from ORCA-job opt
  C   1.01692452967872      0.86240676158993     -0.18819716751605
  C   -0.43377502208819      0.79142674250427     -0.32791944768794
  C   1.64113113097577      2.11665555564475     -0.11886029230794
  C   1.82101293409529     -0.28667851012967     -0.16550420544978
  N   -1.23203791956223     -0.07410871042183      0.38831764038019
  C   -1.27093938506243      1.53260576115765     -1.15933844377446
  C   -0.80387570816120     -0.98125791369298      1.43520454294324
  C   -2.53905394703860      0.10579597592653      0.02577323823086
  H   -1.60730266284784     -1.07599903101781      2.16471237537444
  H   -0.56886219986661     -1.96980498064446      1.03650933513556
  H   0.07891298278191     -0.57938919168855      1.92980843451090
  C   -2.59267137250538      1.09689855774014     -0.93989041433812
  H   -3.32095816647067     -0.47228064674613      0.49389282901292
  H   -3.48786119629244      1.45431659522452     -1.42451150811884
  H   -0.93340262908478      2.27744889790706     -1.86438998848327
  C   3.02575756743102      2.21793550506323     -0.02710842445421
  H   1.02400625119545      3.00890010163722     -0.12203053668081
  C   3.81324615373465      1.06818508559426      0.01115777030512
  H   3.49070967703207      3.19616645974008      0.02666998430746
  C   3.20513823514234     -0.18385324092248     -0.05725406168492
  H   4.89140575137551      1.14725774615634      0.09071911042401
  H   3.81126554221804     -1.08308205860375     -0.04440457345389
  H   1.36083045331958     -1.26364546201836     -0.26555819667445
