23
Coordinates from ORCA-job opt
  C   1.08622341383099      0.41830866200890     -0.15212729145666
  C   -0.31287074618604      0.02538434566898     -0.28014105759244
  C   2.05185710816291     -0.56792265704485      0.10181654179168
  C   1.51635647587202      1.74164357429659     -0.33026013103942
  N   -1.35669383900873      0.72498714045860      0.28847708666211
  C   -0.85928852905034     -1.10233071336511     -0.89127359702362
  C   -1.26129375135223      1.91922196284620      1.10510169182864
  C   -2.53193210820251      0.06884980475569      0.04594681143783
  H   -0.32993086688301      1.90760343210185      1.66927628531708
  H   -1.29776432474818      2.82480273743699      0.49704754190704
  H   -2.09810062717470      1.92842885955915      1.80225379127678
  C   -2.25306789802547     -1.07075612787262     -0.68937686302413
  H   -3.46435947527068      0.45885180887679      0.42415807193229
  H   -2.98175203763309     -1.79209836232235     -1.02446455670747
  H   -0.29298388970229     -1.83904049416601     -1.44113187205908
  C   3.40086210523779     -0.23913659650621      0.18612527458427
  H   1.72709334435213     -1.59188603975223      0.25257740458738
  C   3.81332002442905      1.08330716795634      0.02847554219458
  H   4.13132582705825     -1.01532151648489      0.38609029235958
  C   2.86525735293402      2.07133104341405     -0.22918834589068
  H   4.86363703192117      1.34082646510480      0.10240733149646
  H   3.17842614667762      3.09987126641659     -0.37141886650983
  H   0.79527926276133      2.51097323661272     -0.58256908607241
