23
Coordinates from ORCA-job opt
  C   1.06236697275534      0.55534797281676     -0.25074903214205
  C   -0.35460421263220      0.25312180335081     -0.42269456499757
  C   1.77072172980728      0.18462060608208      0.90158393784922
  C   1.75983054703748      1.19243752018391     -1.28766498013735
  N   -1.31591208648602      0.45541751451387      0.54217130403730
  C   -0.98630692625451     -0.32665441606728     -1.52081496757805
  C   -1.12613021889859      1.10217113277143      1.82585584417604
  C   -2.52696675738249      0.01843992704316      0.07716397563912
  H   -0.29659583019922      1.80427732309684      1.76087272158077
  H   -2.03386412601473      1.64735690309639      2.08194214624119
  H   -0.91531821303740      0.37474608993922      2.61194116039957
  C   -2.35001096315323     -0.47901403868900     -1.20359230771801
  H   -3.41313876053482      0.11508947561853      0.68551800976363
  H   -3.11743974992500     -0.91124739276985     -1.82714111121101
  H   -0.48393189640386     -0.63408567590330     -2.42575621020367
  C   3.13044297449132      0.45874731230655      1.01975712941484
  H   1.25845778998394     -0.34849215660233      1.69535093777148
  C   3.81204611873026      1.09163303268898     -0.01800518063793
  H   3.66236956103495      0.16154567648938      1.91690140157267
  C   3.12227494156440      1.45115210956958     -1.17488596550487
  H   4.87184083885113      1.30037596569640      0.07293704277506
  H   3.64451696691373      1.94531607252482     -1.98671915323004
  H   1.21495029975222      1.49359924224306     -2.17617213786032
