23
Coordinates from ORCA-job opt
  C   1.08934220917223      0.39691690951031     -0.13302944848974
  C   -0.31153380517237     -0.00099504881932     -0.22628075320717
  C   2.06213263142754     -0.56395970596681      0.17885182456220
  C   1.50491848999948      1.71288350692869     -0.38351209458771
  N   -1.35520315511147      0.71267483505392      0.31992253978312
  C   -0.86213124241145     -1.09260289482125     -0.89420970595535
  C   -1.24935974978213      1.88331379171793      1.16950495789013
  C   -2.53840948724654      0.09810178467399      0.01119431018065
  H   -0.29655280173145      1.86652763466910      1.69589554372022
  H   -1.31854004003656      2.80515751492969      0.58911199319981
  H   -2.05888934304409      1.86151020088456      1.89814113902695
  C   -2.26162260601127     -1.02622713163215     -0.74905975165988
  H   -3.47305378599621      0.49743277211689      0.37404750293171
  H   -2.99276525591839     -1.70653857279085     -1.15767086119963
  H   -0.29332290248662     -1.82052664272888     -1.45320173457910
  C   3.40897562356184     -0.21979565154595      0.23529635769446
  H   1.74388596958297     -1.57982951432491      0.38825606461870
  C   3.80864406175623      1.09439618162532     -0.00264481161245
  H   4.14741927901453     -0.97598849892886      0.47797435317947
  C   2.85127677832409      2.05909437219021     -0.31089463916093
  H   4.85733032435892      1.36381720837463      0.04921922193119
  H   3.15550452114315      3.08048386351177     -0.51182384966549
  H   0.77155528660757      2.46005508537197     -0.66729015860116
