23
Coordinates from ORCA-job opt
  C   1.01605832729931      0.91815753923774      0.14928542706687
  C   -0.43861286906828      0.90606440594913      0.26066365071498
  C   1.67946660222598      0.51339402963455     -1.01822388417011
  C   1.78337178756424      1.39509337717530      1.22239899736921
  N   -1.23823800781993     -0.14070413959095     -0.14128700370606
  C   -1.27992076730359      1.91323477285279      0.72823181449318
  C   -0.79180922733280     -1.43323596345775     -0.62355420035365
  C   -2.55188144296129      0.18565574301086      0.06181604975201
  H   -0.73617530033770     -1.45518785088145     -1.71347223536836
  H   0.19201503728733     -1.65531688681915     -0.21366968836062
  H   -1.49574319473342     -2.19449354281556     -0.28925873233489
  C   -2.60779277141985      1.46178244872016      0.59751689623158
  H   -3.33313225260791     -0.52119144101417     -0.17214805411582
  H   -3.50699910547427      2.00134084504167      0.85188415246190
  H   -0.94581396758496      2.87714240062592      1.08187683717731
  C   3.06798040086915      0.56747326133827     -1.10241428500054
  H   1.10152807122640      0.18363505750956     -1.87487993360940
  C   3.81882773249175      1.04402052724891     -0.02953229301790
  H   3.56341782168810      0.25349514516680     -2.01461924987742
  C   3.16987872209282      1.46379764751961      1.13074739083700
  H   4.89964117073854      1.09028647952309     -0.09794925449383
  H   3.74635833600013      1.83458361556587      1.97110571757631
  H   1.27717489716025      1.69687052845879      2.13328388072824
