23
Coordinates from ORCA-job opt
  C   1.08948289919714      0.39514770695648     -0.13097274489630
  C   -0.31144378629886     -0.00303804738594     -0.22179633664705
  C   2.06267547558708     -0.56360199714034      0.18601583988942
  C   1.50427074893481      1.71011984689654     -0.38751402507985
  N   -1.35497887540660      0.71075878327547      0.32399247274358
  C   -0.86205455430613     -1.09049848411079     -0.89624089896287
  C   -1.24938855165922      1.88017291720463      1.17475114941391
  C   -2.53866256561585      0.10011922994491      0.00866926474585
  H   -0.29370505794536      1.86636078465235      1.69596218664709
  H   -1.32532560343167      2.80272151944845      0.59628492550580
  H   -2.05442683942772      1.85451092684610      1.90830642286212
  C   -2.26205919026466     -1.02140652253412     -0.75578221531325
  H   -3.47352833064844      0.50033991287384      0.37001905281934
  H   -2.99239416547075     -1.69836993499173     -1.17139586259822
  H   -0.29301122998836     -1.81707818850402     -1.45669882201626
  C   3.40953011978796     -0.21860098690549      0.24014824395862
  H   1.74587184502423     -1.57878443598450      0.40082981753444
  C   3.80854557377042      1.09458620151800     -0.00454664429140
  H   4.14830378543774     -0.97326790015509      0.48650317511443
  C   2.85056009255369      2.05729608739436     -0.31707578302401
  H   4.85711148556141      1.36479799959925      0.04538979226723
  H   3.15394521849996      3.07794776465714     -0.52296723858428
  H   0.77027950610918      2.45566381644450     -0.67408177208832
