23
Coordinates from ORCA-job opt
  C   1.01310816897693      0.88263514255574     -0.17359810267841
  C   -0.44035903821525      0.81911455702047     -0.28910207644337
  C   1.64913542656544      2.12707601442455     -0.05865238014422
  C   1.80576356702686     -0.27378093802659     -0.20362027594760
  N   -1.23731733739379     -0.05815323862591      0.41067568370398
  C   -1.26614858992240      1.52031656416148     -1.16505874220048
  C   -0.81101512646701     -0.93993295284200      1.47974750714487
  C   -2.53589660597105      0.07700560527982     -0.00197988905373
  H   -1.61754996207433     -1.02756602426458      2.20684545245117
  H   -0.56352209542605     -1.93388384191162      1.10243521202214
  H   0.06544063642418     -0.51982526624838      1.97044736176212
  C   -2.58135288340160      1.04874350914108     -0.98879778612579
  H   -3.31798467030361     -0.51101006615216      0.45332385069783
  H   -3.46043409347015      1.36335421566571     -1.53023972578327
  H   -0.92146928168287      2.25616879350056     -1.87613678403092
  C   3.03615931622600      2.21262501106436      0.01443521010875
  H   1.04050840008438      3.02436320615441     -0.01745805406071
  C   3.81321663965833      1.05534646000333     -0.00667818700400
  H   3.51074393875585      3.18383311443053      0.10143377323604
  C   3.19246151680908     -0.18768367237705     -0.11438529990879
  H   4.89326268983165      1.12168292878245      0.05801349274905
  H   3.78978581823389     -1.09239803391613     -0.14464806175083
  H   1.33306556573550     -1.24213108782007     -0.32920217874383
