23
Coordinates from ORCA-job opt
  C   1.01629744341497      0.91619257468753      0.14989915325972
  C   -0.43823155868582      0.90257280006363      0.26258554399390
  C   1.67935339747201      0.51427942217648     -1.01878802077035
  C   1.78373444037166      1.39263854269541      1.22322107398995
  N   -1.23915201969395     -0.14363610976794     -0.13749223771820
  C   -1.27827077528338      1.91249829508551      0.72690352443530
  C   -0.79282698552701     -1.43555237396418     -0.62134145823318
  C   -2.55252184242682      0.18550980208907      0.06351030426898
  H   -0.72317373633631     -1.45161310946781     -1.71051176665985
  H   0.18453259741823     -1.66488737264770     -0.19999038095848
  H   -1.50526691550742     -2.19473872000347     -0.30077810531932
  C   -2.60667972566913      1.46341694518941      0.59564997624684
  H   -3.33474774923226     -0.52082300390362     -0.16872797280763
  H   -3.50484110072690      2.00628517366073      0.84685453771572
  H   -0.94227790731523      2.87637706621223      1.07883606588564
  C   3.06769471672511      0.57083150004391     -1.10413991458687
  H   1.10101206224093      0.18502753228833     -1.87535175226024
  C   3.81858711316400      1.04697013183205     -0.03106804970799
  H   3.56313006325212      0.25914002337218     -2.01712233213702
  C   3.17006628035639      1.46391138597066      1.13045425080034
  H   4.89927197423078      1.09514108990237     -0.10027313806258
  H   3.74678873143898      1.83428408917791      1.97082413941123
  H   1.27712049631904      1.69207331530730      2.13464655921408
