23
Coordinates from ORCA-job opt
  C   1.06238945506280      0.55559684437285     -0.25098818690358
  C   -0.35468253784145      0.25335152638437     -0.42285029232821
  C   1.77082969005030      0.18371732304101      0.90093121958927
  C   1.75963163149675      1.19366147712186     -1.28737896362428
  N   -1.31606267038371      0.45644569068544      0.54177979197537
  C   -0.98614058757543     -0.32773057651473     -1.52034611996959
  C   -1.12623276339770      1.10291031762411      1.82560861366111
  C   -2.52687881308782      0.01824731072229      0.07735953702622
  H   -0.29179676894099      1.79930202646132      1.76256537373800
  H   -2.03101615575872      1.65449478597954      2.07851548873540
  H   -0.92273135069539      0.37452919710638      2.61275192157258
  C   -2.34984287812182     -0.48007502377174     -1.20303488671997
  H   -3.41317563701255      0.11553267951987      0.68543515311192
  H   -3.11728142810396     -0.91298002616990     -1.82610843877305
  H   -0.48352237304808     -0.63570829909137     -2.42496502667639
  C   3.13052496777282      0.45776623000580      1.01925743436599
  H   1.25838465387518     -0.35006591606361      1.69415891119547
  C   3.81193043229054      1.09172820650338     -0.01800504986953
  H   3.66269261941129      0.15971551837815      1.91597336400457
  C   3.12207899120955      1.45232833353273     -1.17448156869731
  H   4.87172017835654      1.30047175641064      0.07301681533731
  H   3.64428038071396      1.94730860581654     -1.98584169673973
  H   1.21449896372789      1.49535601194507     -2.17555239401160
