23
Coordinates from ORCA-job opt
  C   1.01571289688975      0.86954370125348     -0.18402368210132
  C   -0.43614238116670      0.80110989999749     -0.31500423583658
  C   1.64336610101074      2.12058757217468     -0.09579582966493
  C   1.81591493352567     -0.28237933313204     -0.18278247943821
  N   -1.23337322038876     -0.06631251163612      0.39898666633878
  C   -1.27017317239416      1.52681262151510     -1.16259724751529
  C   -0.80464006590978     -0.96663838499516      1.45133578633245
  C   -2.53798955739595      0.09720252251761      0.01936686663481
  H   -1.60314613242153     -1.05007592621793      2.18768943269253
  H   -0.57817962284341     -1.95996714499862      1.05959923424285
  H   0.08409203901844     -0.56543674907931      1.93554176943890
  C   -2.58996875232661      1.07907371442210     -0.95605565048911
  H   -3.31990982997881     -0.48250546270996      0.48547857070320
  H   -3.48119742613677      1.42035308969034     -1.45946313670453
  H   -0.93046624213419      2.26758428260342     -1.87087334180365
  C   3.02893652868705      2.21635803327108     -0.01067647245355
  H   1.02831704744895      3.01419436838617     -0.08146457964910
  C   3.81294381768831      1.06372049882610      0.00390079533664
  H   3.49734636217652      3.19205320116849      0.05703051090988
  C   3.20092433170931     -0.18550821236685     -0.08110692393898
  H   4.89178278605609      1.13842164696069      0.07828219751905
  H   3.80472471803230     -1.08636328530962     -0.08577257263263
  H   1.35072484085354     -1.25592914234117     -0.29379367792123
