23
Coordinates from ORCA-job opt
  C   1.00911719991174      0.94142887713256     -0.00421163778456
  C   -0.44928430604249      0.97143478391342      0.03257669526024
  C   1.67927711325909      1.68656257147267     -0.98730845488319
  C   1.77852121221894      0.25738099868266      0.94919248622234
  N   -1.22359254746186     -0.14844476660120      0.26280674926433
  C   -1.32168334782278      2.01217015780950     -0.28614968420429
  C   -0.75584649894570     -1.49589131551300      0.52480787695102
  C   -2.54379181489927      0.16752443755226      0.10168899990506
  H   -1.51441581687682     -2.19577837447101      0.17719014635838
  H   0.17060059908336     -1.67911569809677     -0.01753694993233
  H   -0.58402980095228     -1.66095270333201      1.58981492742076
  C   -2.63527289749930      1.50624834788832     -0.23856885158618
  H   -3.30652624371285     -0.58428904318007      0.23418627163313
  H   -3.55357425413932      2.03227760555123     -0.44689985705278
  H   -1.01792887951458      3.02505909893678     -0.50421451127600
  C   3.06886698844693      1.72656128850979     -1.02907871047537
  H   1.09475982029979      2.21320588481762     -1.73393610657719
  C   3.82152102475271      1.01955869492538     -0.09238509548228
  H   3.56598627228984      2.30400693341452     -1.80075775476539
  C   3.16951645134572      0.28546831096088      0.89600174370570
  H   4.90453812104884      1.04397331095849     -0.12975764375635
  H   3.74514990970354     -0.25095121249414      1.64241836681424
  H   1.28769069550673     -0.27154018883788      1.75792299424071
