23
Coordinates from ORCA-job opt
  C   1.01603743037394      0.91762510119727      0.14862109593533
  C   -0.43868347169573      0.90575852482181      0.25903489412106
  C   1.68015284545515      0.51357350273413     -1.01876740484494
  C   1.78261634757758      1.39373283420633      1.22263000321367
  N   -1.23895371707637     -0.14208712928727     -0.13840972987064
  C   -1.27939924409018      1.91480551892364      0.72413348854233
  C   -0.79203216402612     -1.43323588254881     -0.62314544546490
  C   -2.55241343999511      0.18522652376392      0.06503082706819
  H   -0.71290100181507     -1.44597454998779     -1.71171012958009
  H   0.18086888936171     -1.66781655079669     -0.19425018846316
  H   -1.50967027226295     -2.19135737059130     -0.31182632833926
  C   -2.60744197901103      1.46353236149956      0.59587837268179
  H   -3.33408031939872     -0.52166461305767     -0.16735867981711
  H   -3.50539460209470      2.00519217993872      0.85030159990038
  H   -0.94437704495468      2.87902078689753      1.07605833858058
  C   3.06875335079979      0.56761459474156     -1.10210327206083
  H   1.10247559829716      0.18493585434432     -1.87596694882155
  C   3.81885889818524      1.04332755534048     -0.02830685172501
  H   3.56473248248752      0.25404672445849     -2.01414811994799
  C   3.16931560535528      1.46246951426867      1.13182768610213
  H   4.89973234412980      1.08952832618436     -0.09598798700601
  H   3.74531029801132      1.83268838842910      1.97276042097645
  H   1.27609116638615      1.69495680451965      2.13350335881959
