23
Coordinates from ORCA-job opt
  C   1.01663299819993      0.86389506030086     -0.18743733069295
  C   -0.43430544411757      0.79364307560249     -0.32511329577587
  C   1.64165197322546      2.11746416914880     -0.11395344536309
  C   1.81984919019491     -0.28583780009136     -0.16936872632862
  N   -1.23218991126212     -0.07270346048550      0.39028887278499
  C   -1.27098858925187      1.53181618379197     -1.15961062755454
  C   -0.80385909513191     -0.97811022903002      1.43859590620896
  C   -2.53881284328568      0.10385485725700      0.02443653272852
  H   -1.60645544336496     -1.07070755745707      2.16930045689979
  H   -0.57009720438799     -1.96762516877720      1.04158168024531
  H   0.07986288845296     -0.57595893999733      1.93125873717243
  C   -2.59224970028082      1.09322827096449     -0.94309164226605
  H   -3.32062859939176     -0.47474628799777      0.49205345680030
  H   -3.48669294750391      1.44714511159700     -1.43169047250835
  H   -0.93319312478009      2.27601109041351     -1.86521972303095
  C   3.02649090511117      2.21750277658959     -0.02365236416584
  H   1.02506229866381      3.01009383795641     -0.11330244873362
  C   3.81321849543318      1.06706445200316      0.00947664989787
  H   3.49219180049367      3.19520185535709      0.03313941455377
  C   3.20418831943069     -0.18433746482739     -0.06254486551436
  H   4.89153107966392      1.14512058825780      0.08789621434048
  H   3.80973525227847     -1.08399887687250     -0.05345042538560
  H   1.35865870161051     -1.26211554370407     -0.27179255431257
