23
Coordinates from ORCA-job opt
  C   1.04029160345340      0.69759684709165     -0.26609963161463
  C   -0.39664746831956      0.52725545263844     -0.45213762904970
  C   1.57185903678611      1.47345600790882      0.77427704158769
  C   1.92632686853065      0.10994899252689     -1.18123998352039
  N   -1.27983938331453      0.23580807006682      0.56367369956554
  C   -1.14091175071170      0.65841152305277     -1.62252460986016
  C   -0.94307986137520     -0.06087261223304      1.94227070344900
  C   -2.55146012749524      0.18226161160985      0.05998888343387
  H   -0.98515853864003      0.83448208510277      2.56517356211437
  H   -1.65191546094612     -0.79341495359937      2.32656673185127
  H   0.06077475288848     -0.47946018443093      1.99064309361815
  C   -2.49536800323090      0.44711908639206     -1.29851717574867
  H   -3.38444221260005     -0.05709031115614      0.70307611464453
  H   -3.33964731600156      0.49057022560114     -1.96909197928855
  H   -0.72897478212792      0.91902889419452     -2.58593006805151
  C   2.94772139095489      1.64110770229632      0.90508123483964
  H   0.90152341476823      1.97274046201402      1.46559966097151
  C   3.81743125727937      1.05279120984432     -0.01116103034329
  H   3.34027834175837      2.24752313626930      1.71397304163653
  C   3.30026884135905      0.29201003701492     -1.05875365390871
  H   4.88824703568502      1.18815475173288      0.08872202808983
  H   3.96972747363212     -0.17075463791632     -1.77545404969888
  H   1.52259788766713     -0.50277239602167     -1.98033398471744
