23
Coordinates from ORCA-job opt
  C   1.06303436856498      0.55035654868332     -0.25130364445407
  C   -0.35285454272837      0.24377655497564     -0.42354938052942
  C   1.77079674845332      0.18671714052109      0.90357837153366
  C   1.75989683881912      1.18628192017078     -1.28950539601456
  N   -1.31287645125412      0.44945238261831      0.54230851234310
  C   -0.98829861792463     -0.32908779991446     -1.52309870986797
  C   -1.12183307795829      1.09558799171965      1.82604084946425
  C   -2.52654902991445      0.02105604959331      0.07641099619455
  H   -0.29073113601170      1.79588853219651      1.76186390824361
  H   -2.02832835154250      1.64311341866024      2.08144753470740
  H   -0.91334246483225      0.36774415686775      2.61230475048926
  C   -2.35302328897356     -0.47384537726502     -1.20570591026232
  H   -3.41190054000546      0.12058795919705      0.68547100310353
  H   -3.12504905575417     -0.89755185461984     -1.82925695752264
  H   -0.48854602574429     -0.63676617029883     -2.42937611058267
  C   3.12929726010206      0.46679087591446      1.02296377361297
  H   1.25995580345557     -0.34570026260639      1.69864699950783
  C   3.81042449104202      1.09822416181092     -0.01596485030924
  H   3.66075862095901      0.17486774779824      1.92211609482047
  C   3.12112791456354      1.45068572970432     -1.17542118978494
  H   4.86924191341732      1.31126814011845      0.07602161096538
  H   3.64279635869531      1.94378306153894     -1.98825577186213
  H   1.21560126457154      1.48267109261554     -2.17993648379605
