23
Coordinates from ORCA-job opt
  C   1.06205605210550      0.63662375883657      0.33084540182717
  C   -0.35958492481878      0.41921568460906      0.57808045822000
  C   2.01202490332743     -0.11739685893163      1.03490165702394
  C   1.51529355598544      1.60794535194867     -0.57351733886773
  N   -1.31067162874734      0.31367386573062     -0.41164954344335
  C   -1.02526816985581      0.35859058548267      1.80031866450658
  C   -1.06621619187660      0.26185720434096     -1.83972454285364
  C   -2.54911077520331      0.18889417691694      0.15824075274263
  H   -0.07588219027816     -0.15063311916286     -2.02537029690033
  H   -1.81244413861411     -0.38460522477062     -2.30015083927723
  H   -1.12826127050799      1.25340474580531     -2.29176768117668
  C   -2.40185694497157      0.22037726482262      1.53539682051121
  H   -3.42552949470827      0.06801626287773     -0.45981293441421
  H   -3.20072834788625      0.16588100082192      2.25885587711602
  H   -0.54745293100376      0.45020308618449      2.76422960060028
  C   3.37354263929360      0.09848714710408      0.84522012128653
  H   1.66717166656440     -0.88157055252401      1.72354347631631
  C   3.81215465628552      1.05918336279300     -0.06486738468383
  H   4.09397502550054     -0.49333779565789      1.39902376339916
  C   2.87778772954075      1.81158632894487     -0.77420422790638
  H   4.87282573155611      1.22180079998493     -0.21819890426096
  H   3.21050346859544      2.57046488295283     -1.47388530341239
  H   0.79527357971719      2.22723704088973     -1.09770759635311
