23
Coordinates from ORCA-job opt
  C   1.03250440080852      0.82620133000003      0.26381014375400
  C   -0.40715713130616      0.73019025587896      0.48008526827742
  C   1.82448625896957     -0.29968845484473     -0.00481429145059
  C   1.66220433391711      2.07479001102741      0.37478628753703
  N   -1.26252867949361     -0.00493244657398     -0.31024691811122
  C   -1.16902828544479      1.29319233087897      1.50154676173079
  C   -0.92270400112697     -0.70122248661948     -1.53589759410661
  C   -2.53365086533873      0.08361708572021      0.18958403040355
  H   -0.06425484731985     -0.22068185524473     -2.00213811826128
  H   -0.68407111541072     -1.74940885674399     -1.34653324965821
  H   -1.77192768290625     -0.64843758361353     -2.21620881643353
  C   -2.50405292552140      0.88163374162532      1.32134848198525
  H   -3.35304712525492     -0.40995102046429     -0.31012179798772
  H   -3.35031475132295      1.12509587408080      1.94501960252783
  H   -0.77083268852939      1.89871366360967      2.30191818167988
  C   3.20074434564616     -0.17707259809677     -0.17469976866969
  H   1.36259182243993     -1.28009962194879     -0.05022097513543
  C   3.81436950617380      1.06893262954787     -0.06121503218502
  H   3.79751702198460     -1.05940341483643     -0.37844772688725
  C   3.03980785849062      2.19324963831791      0.22085320413681
  H   4.88671563328809      1.16254229616739     -0.18884828677837
  H   3.50875192153922      3.16704240592374      0.30935355832160
  H   1.05347599571812      2.95159707620846      0.56888805531077
