23
Coordinates from ORCA-job opt
  C   1.05945569009043      0.65834324423835      0.32621208676800
  C   -0.36334788464873      0.46403753566985      0.58482918651821
  C   1.99879269189794     -0.07375897394973      1.06749440269747
  C   1.52801274532620      1.59185076077709     -0.61009553330419
  N   -1.31320850283212      0.34284435928705     -0.40667734245178
  C   -1.02486541184356      0.34912504590762      1.80584491222819
  C   -1.07440203998178      0.31497706214457     -1.83647919886735
  C   -2.54405049720528      0.15832799229227      0.16153238219382
  H   -0.08771982872321     -0.10012154629504     -2.03578727800746
  H   -1.82722794084020     -0.31942702007303     -2.30270757137819
  H   -1.13435253575340      1.31405676206485     -2.27191880192529
  C   -2.39544696057895      0.16235634688634      1.53822941199354
  H   -3.41786916145159      0.02569240401302     -0.45776389453675
  H   -3.19180331581975      0.04301445180365      2.25618379361624
  H   -0.54932836673526      0.42873124245931      2.77194568156488
  C   3.36320259802423      0.11873450567531      0.87490200331920
  H   1.64326061750312     -0.80689745707977      1.78374497259766
  C   3.81657815342109      1.03693172518101     -0.07107545894198
  H   4.07454231919405     -0.45761850259113      1.45613022111988
  C   2.89354319437556      1.77146285347726     -0.81301045653814
  H   4.87964569137725      1.18086900745830     -0.22657977076169
  H   3.23741976343779      2.49986283983603     -1.53920153808843
  H   0.81876698176618      2.20250736081683     -1.15795120981584
