23
Coordinates from ORCA-job opt
  C   1.08716492524011      0.41247239692217     -0.14667973170527
  C   -0.31278646744507      0.01859348908995     -0.26499641666621
  C   2.05414970232490     -0.56691808709153      0.12510337714051
  C   1.51318634775241      1.73395998169915     -0.34702414832524
  N   -1.35664874641763      0.72160023020540      0.29808517816775
  C   -0.85995370165475     -1.09870767917842     -0.89287349027175
  C   -1.25705171915772      1.90848202912053      1.12465924395500
  C   -2.53421671532645      0.07621399179136      0.03651107022560
  H   -0.32101487776171      1.89219479218419      1.68083581079737
  H   -1.29844530256795      2.81932278828417      0.52471865386947
  H   -2.08821852778181      1.91164751585386      1.82868701299561
  C   -2.25594263747063     -1.05824777949529     -0.70680960140785
  H   -3.46757309031081      0.46919053289275      0.40946315301579
  H   -2.98477535915796     -1.76895443606745     -1.06385307447298
  H   -0.29232043575791     -1.83245120993991     -1.44537252635872
  C   3.40275813708226     -0.23362647748878      0.20136369920027
  H   1.73081403386719     -1.58863449817734      0.29363341760316
  C   3.81167216343455      1.08661882278896      0.01917593745694
  H   4.13541171526125     -1.00411840806945      0.41486096067863
  C   2.86137981980159      2.06846811833783     -0.25435880563176
  H   4.86165749658562      1.34737496661913      0.08668427645180
  H   3.17224174750747      3.09501648025559     -0.41478365295305
  H   0.78811249195307      2.49640043946314     -0.60923034376507
