23
Coordinates from ORCA-job opt
  C   1.03259841014705      0.82501739951587      0.26333836876269
  C   -0.40681382204079      0.72816460190826      0.48083862225319
  C   1.82568512604693     -0.29985613933615     -0.00585608665874
  C   1.66100421580941      2.07439910909373      0.37380755263989
  N   -1.26394988816568     -0.00199676868345     -0.31185768758476
  C   -1.16698984650517      1.28912947843782      1.50475475410172
  C   -0.92341512344159     -0.70206729100251     -1.53478384418366
  C   -2.53479615932326      0.08742046105120      0.18890572525161
  H   -0.08127798693752     -0.20790284010318     -2.01657837914251
  H   -0.66020417978337     -1.74313218291253     -1.33934014842490
  H   -1.78215966363586     -0.67390793348585     -2.20440914345757
  C   -2.50293888792377      0.88107034161867      1.32381255211150
  H   -3.35520595134384     -0.40359946280595     -0.31160780608943
  H   -3.34791618007451      1.12449793968536      1.94923968327594
  H   -0.76722821295205      1.89200489456614      2.30632493642318
  C   3.20176465276254     -0.17567865686109     -0.17662462547335
  H   1.36516608731758     -1.28085031344577     -0.05099461924740
  C   3.81415380138385      1.07097824585572     -0.06341378983572
  H   3.79930485263341     -1.05739547125531     -0.38071228805654
  C   3.03848618038911      2.19444507298450      0.21906271540790
  H   4.88632380638751      1.16568420096832     -0.19155033721442
  H   3.50634364347144      3.16876541402736      0.30735938960076
  H   1.05166412577857      2.95070890017883      0.56808445554062
