23
Coordinates from ORCA-job opt
  C   1.01468206327213      0.87709296544468     -0.17754836542685
  C   -0.43821109939486      0.81149856280259     -0.29817553533831
  C   1.64647815045626      2.12492165516271     -0.07599771579120
  C   1.81129613859872     -0.27706954968431     -0.19318357449237
  N   -1.23570018638843     -0.06088731375776      0.40779416059318
  C   -1.26739589175672      1.52355533179721     -1.16189621832937
  C   -0.80944513324812     -0.95477140952464      1.46682605315878
  C   -2.53669143919715      0.08618018649676      0.00844339487149
  H   -1.61179663618328     -1.03896632165321      2.19893931824400
  H   -0.57569748389837     -1.94856937879024      1.08053568589856
  H   0.07465263098342     -0.54703438446081      1.95413386013976
  C   -2.58502765072905      1.06266518991760     -0.97291355725283
  H   -3.31906499918122     -0.49785661906347      0.46836406814461
  H   -3.46959340046024      1.38844204707487     -1.49827210562906
  H   -0.92468889871390      2.26108780643608     -1.87217281985938
  C   3.03279437521557      2.21574408825052      0.00096296669222
  H   1.03400151933722      3.02001369625277     -0.04686301347932
  C   3.81357083503950      1.06083424762933     -0.00411406498669
  H   3.50440074158169      3.18922421763872      0.07810350510741
  C   3.19723088082122     -0.18543320852084     -0.09996405065635
  H   4.89313516171883      1.13148920936884      0.06360864426399
  H   3.79823826732827     -1.08800277724749     -0.11841530567177
  H   1.34243305479851     -1.24825824156992     -0.31039433020051
