23
Coordinates from ORCA-job opt
  C   1.06303145068766      0.55272934569267     -0.25070091694864
  C   -0.35342583386521      0.24868550837941     -0.42296741956420
  C   1.77072231045589      0.18868853624225      0.90416330131782
  C   1.76089624047050      1.18598005401384     -1.28987654190970
  N   -1.31375222076895      0.44937289143185      0.54346336694506
  C   -0.98771698312945     -0.32361497468789     -1.52350405521801
  C   -1.12460558326408      1.09599637364454      1.82760246459365
  C   -2.52633703717648      0.01864370281641      0.07703175017187
  H   -0.29351578223192      1.79634101216724      1.76400043124555
  H   -2.03173669482573      1.64317262504914      2.08148944785285
  H   -0.91699518770695      0.36821234985213      2.61417854536535
  C   -2.35184347261521     -0.47279319519063     -1.20626296135761
  H   -3.41204226472091      0.11583564745039      0.68596338193195
  H   -3.12258155266803     -0.89848894277302     -1.83012239419896
  H   -0.48705200872877     -0.62933305864349     -2.42998135132799
  C   3.12983525401005      0.46569808818974      1.02246736856463
  H   1.25911259167407     -0.34172427052792      1.70010706401842
  C   3.81170573378787      1.09470877527767     -0.01740226231262
  H   3.66137073987289      0.17365987612385      1.92154566866636
  C   3.12256700873629      1.44754661472499     -1.17678287081021
  H   4.87103064493535      1.30567436753624      0.07377838395914
  H   3.64492964105643      1.93875108946042     -1.99034194717729
  H   1.21600400601470      1.48215858377016     -2.18004845380743
