27
Coordinates from ORCA-job mp2_opt
  C   -0.01470549918608      1.53338079260547      0.08137163438009
  C   -2.23541649925475      0.86035012318642      0.02173068836236
  C   -1.84154003160438     -0.47480021509495     -0.02247585223573
  C   -0.41542847689381     -0.85455391477421     -0.03220330050063
  C   0.52024907542404      0.27865921182224      0.05529663167495
  H   -3.83411794756870      2.28921539284068      0.05888327870851
  H   0.58324269087068      2.43059594929837      0.14909353927918
  C   -3.57854364965168      1.23676411442094      0.02384776098689
  C   -2.83835276736064     -1.46169429239329     -0.06529088251383
  C   -4.17439117803620     -1.10491552708043     -0.06189431257289
  C   -4.54581817082800      0.24717710736741     -0.01754583663874
  H   -2.52119788838586     -2.49723943558966     -0.10078666579331
  H   -4.93947195822334     -1.87174284876652     -0.09298354998411
  H   -5.59388360896172      0.52295875499155     -0.01536796268113
  C   1.99615974034260      0.12409839093698      0.04020620526497
  C   2.59827448704440     -1.14260655469088      0.11797716370855
  C   2.84516674247616      1.23734511487595     -0.10489183573033
  C   3.98504256266360     -1.27791225277136      0.09311830616246
  H   1.97488642122776     -2.01803456744122      0.21083071530983
  C   4.22653911369184      1.09640224758156     -0.12751560155804
  H   2.44474045582930      2.23581121095505     -0.22475519250976
  C   4.80953408491879     -0.16516400475074     -0.02479519112035
  H   4.41748698409021     -2.26966235874499      0.16307725179814
  H   4.84807805308353      1.97800563914291     -0.23764854787736
  H   5.88762186475103     -0.27524514816947     -0.04532477666039
  O   -0.09100707133334     -2.03929920739417     -0.11176380893157
  O   -1.31563052912544      1.86742327763638      0.06527714167225
