27
Coordinates from ORCA-job mp2_opt
  C   -0.00517477316632      1.52202068431855      0.32718273406095
  C   -2.21659299473520      0.82755988233782      0.17059445691191
  C   -1.81787746134756     -0.48671295494114     -0.08661698216277
  C   -0.38810265017635     -0.84412779751906     -0.12576948674938
  C   0.50825562281669      0.29801210958667      0.05242255666089
  H   -3.83070833618372      2.21636646728974      0.41687028459956
  H   0.61341626757846      2.39193921043635      0.51540920985677
  C   -3.56452191893019      1.18553954807162      0.21446769637514
  C   -2.80629472877832     -1.45774282888343     -0.30525531449944
  C   -4.14513817834765     -1.11307626608555     -0.26726258837309
  C   -4.52407303563504      0.21187690111772     -0.00642916133276
  H   -2.47858081489746     -2.47225266724100     -0.50112981345883
  H   -4.90512737476049     -1.86633794366320     -0.43791388420764
  H   -5.57363888589287      0.48073550897122      0.02242914029539
  C   1.97178616244267      0.11893232273425      0.01003996630278
  C   2.62084019151086     -0.61445667144299      1.00791854894568
  C   2.72799038800920      0.72584608275128     -0.99691758419721
  C   4.00622573260484     -0.74129731170555      0.99332689135812
  H   2.03360286150285     -1.08819345007388      1.78690677777427
  C   4.11521334888122      0.59847800374970     -1.00944720402142
  H   2.22157135993530      1.28771679757111     -1.77523794988924
  C   4.75638690047717     -0.13384599094329     -0.01322651206275
  H   4.50237047547816     -1.31053910287115      1.77117987940075
  H   4.69325505498614      1.06986775545913     -1.79623223629821
  H   5.83558484892274     -0.23421052405091     -0.02219561246117
  O   0.00523479636817     -1.99634125335791     -0.29399576099581
  O   -1.31496385866328      1.83106948838393      0.39633494816752
