27
Coordinates from ORCA-job mp2_opt
  C   -0.00315394030649      1.50796035162304     -0.34836199519954
  C   -2.21645350660811      0.82963760598409     -0.17050285495562
  C   -1.82145679214466     -0.48605260474732      0.08155858828629
  C   -0.39438032126426     -0.85518441481110      0.10716655502187
  C   0.51266039469763      0.27713028804257     -0.09407364846233
  H   -3.82446486349387      2.22804220815356     -0.40270123022713
  H   0.61651053914416      2.37359149492460     -0.55133067096877
  C   -3.56241563347898      1.19595917674851     -0.20129673248122
  C   -2.81317886553646     -1.45079449090777      0.31442003897488
  C   -4.15020884387831     -1.09826646231141      0.29145188151436
  C   -4.52497624394769      0.22810737051999      0.03119726866088
  H   -2.48933591634994     -2.46660857358607      0.50962806039270
  H   -4.91231311391666     -1.84678133008059      0.47315639522874
  H   -5.57332461607106      0.50252591890687      0.01264975114830
  C   1.97387775091000      0.11697308597827     -0.02650711746341
  C   2.75080770718718      1.04051862329401      0.68453303053635
  C   2.60878438684254     -0.94401223439323     -0.68343462700249
  C   4.13710727025979      0.92150343237923      0.71993427757038
  H   2.26070803686313      1.83785724627135      1.23429274850525
  C   3.99492014127439     -1.05877437546274     -0.64663090530370
  H   2.01338511461651     -1.67149182672258     -1.22052702155456
  C   4.76338500156970     -0.12759682641207      0.05068999457649
  H   4.72555681480851      1.64038401812289      1.27892864205226
  H   4.47728175100003     -1.88076179912936     -1.16334456252464
  H   5.84253996290247     -0.22464257355541      0.08014295747347
  O   -0.01848410322930     -2.01155892089141      0.28968329177992
  O   -1.30986311185026      1.82624561206207     -0.40227211557875
