27
Coordinates from ORCA-job mp2_opt
  C   0.00009484544184      1.50649667162630      0.32939802375006
  C   -2.21565184038446      0.83353211595589      0.16220024059202
  C   -1.82441035458675     -0.48568305355207     -0.07528221250837
  C   -0.39846225360491     -0.85940437117095     -0.09998248564193
  C   0.51413042869877      0.27035743765026      0.09452188718433
  H   -3.81910144588409      2.23950433080289      0.38054028920369
  H   0.62078277862624      2.37311745719743      0.52384187193411
  C   -3.56039655332537      1.20440062669159      0.19067357705397
  C   -2.81917344403612     -1.45016532006243     -0.29613026187735
  C   -4.15515143893286     -1.09356003161278     -0.27519709816566
  C   -4.52597352644876      0.23671771925547     -0.02945750939962
  H   -2.49855009340763     -2.46897740984682     -0.48058648081180
  H   -4.91961039901844     -1.84195996602238     -0.44727024937357
  H   -5.57353538219144      0.51420731694672     -0.01262829320598
  C   1.97496392971151      0.10915009237228      0.01830898754156
  C   2.75801177564081      1.07526898837592     -0.62790726639613
  C   2.60826770533063     -0.98504031131351      0.62121231829091
  C   4.14440159211264      0.96064650469925     -0.65835795251681
  H   2.27371050175692      1.90099435168751     -1.13939103679394
  C   3.99508693529995     -1.09498398825039      0.58931654923550
  H   2.01106059444253     -1.74255807807124      1.11183906966775
  C   4.76786566448879     -0.12418517993690     -0.04576809830814
  H   4.73557771885879      1.71194943931935     -1.16979416175731
  H   4.47434077939117     -1.94434007738181      1.06287082986570
  H   5.84740685233963     -0.21777041580332     -0.07225914256211
  O   -0.02938884785689     -2.01890717161345     -0.27773451136063
  O   -1.30521652246251      1.82937632205720      0.38036211635972
