27
Coordinates from ORCA-job mp2_opt
  C   -0.00832141441954      1.52929612470091     -0.10968556172853
  C   -2.22991748260848      0.85718516565428     -0.06004264890160
  C   -1.83936986719788     -0.47614101523864      0.04704463784615
  C   -0.41398858721339     -0.85414737263241      0.09241964742039
  C   0.52054312407839      0.27490662742770     -0.03332380616747
  H   -3.82677366603710      2.28340559889859     -0.17931167414351
  H   0.59599091641780      2.42056702562171     -0.20474035254459
  C   -3.57274076088618      1.23329635119653     -0.09543718721318
  C   -2.83785105766167     -1.45921280179773      0.12335542548887
  C   -4.17335035508483     -1.10183729380071      0.08867090134337
  C   -4.54178207518847      0.24736156633998     -0.02121875868602
  H   -2.52178759489465     -2.49218677910828      0.20940103412930
  H   -4.94020304850220     -1.86536773558355      0.14584036891641
  H   -5.58929888516894      0.52410542458613     -0.04750476692450
  C   1.99094887843871      0.11356516178366      0.03895776114175
  C   2.83588340609015      1.22005735894656      0.23937581077125
  C   2.59391811573931     -1.13018532064171     -0.20957114167036
  C   4.21834497565379      1.08683206252435      0.21627120856478
  H   2.42598167656284      2.19589330201988      0.47007881957115
  C   3.98102251164278     -1.25854489545291     -0.22966634643119
  H   1.97058124196806     -1.99460643539722     -0.38012578379553
  C   4.80250711302596     -0.15551249594737     -0.02345664595929
  H   4.83983369976628      1.95850960616358      0.38811864805533
  H   4.41749369936236     -2.23295608778366     -0.41827174257733
  H   5.88121065114208     -0.26027673009769     -0.03951277664893
  O   -0.08215774574196     -2.03103745161149      0.23371136414779
  O   -1.30971146928321      1.86264403922952     -0.13268943400448
