27
Coordinates from ORCA-job mp2_opt
  C   -0.01560261396366      1.53506414597192      0.00008463438917
  C   -2.23736055946942      0.86200895611912      0.00005993026022
  C   -1.84384337897384     -0.47360499450699     -0.00005589370980
  C   -0.41812157545027     -0.85416192821271     -0.00000385681051
  C   0.52042650055813      0.28010486639443      0.00002253185080
  H   -3.83669066222203      2.29067939363752      0.00017550389399
  H   0.58116942984218      2.43504234046858      0.00016294155470
  C   -3.58057687698722      1.23776958134343      0.00007980688901
  C   -2.84011928482424     -1.46201936860341     -0.00015383094923
  C   -4.17616915531349     -1.10562745900122     -0.00014829240056
  C   -4.54740015393578      0.24708975339066     -0.00002652098589
  H   -2.52154429018874     -2.49772540991127     -0.00023857865234
  H   -4.94141396746662     -1.87295502028010     -0.00024865124906
  H   -5.59553776396543      0.52269342160712     -0.00000322531315
  C   1.99734169441611      0.12305936480089     -0.00003055325812
  C   2.85206887880536      1.24172447758589     -0.00001662172441
  C   2.59753268423757     -1.14736410090041      0.00005830016804
  C   4.23326792144485      1.09886139619302     -0.00006538692563
  H   2.45919343159896      2.24992399816659     -0.00011140675432
  C   3.98441278753059     -1.28406599838266     -0.00000047602958
  H   1.97124564018562     -2.02548019214166      0.00005544144387
  C   4.81280859866547     -0.16847159935111     -0.00001495068317
  H   4.85812109318327      1.98502351398225     -0.00008053128429
  H   4.41369957221082     -2.27972932784548      0.00004490851663
  H   5.89101257220956     -0.27960259799692     -0.00003823840832
  O   -0.09767563455088     -2.04289786990382      0.00006400466382
  O   -1.31686288757685      1.86896365737636      0.00014801150814
