27
Coordinates from ORCA-job mp2_opt
  C   -0.01315768866660      1.53069863827761     -0.15970282778986
  C   -2.23184018224725      0.85799382809201     -0.05212356137547
  C   -1.83763669456872     -0.47605267722816      0.02635217150673
  C   -0.41144342179713     -0.85524010498587      0.02329086238755
  C   0.51991263420922      0.27671679315612     -0.10280728619200
  H   -3.83146049223580      2.28507180812696     -0.10653407026890
  H   0.58759047370671      2.42299877962841     -0.26672375502651
  C   -3.57506023080439      1.23411487494584     -0.04288766387364
  C   -2.83348244596677     -1.46055132283392      0.11837612359126
  C   -4.16946571804638     -1.10339535799555      0.12798462937560
  C   -4.54138378009798      0.24686781606931      0.04703601085221
  H   -2.51506205274075     -2.49446770076127      0.18085654014625
  H   -4.93410373021791     -1.86815076909672      0.19721756798962
  H   -5.58928208627249      0.52329789421737      0.05501377859313
  C   1.99342936813978      0.12441470727582     -0.06758674105370
  C   2.60183549994035     -1.13219914790180     -0.21749519421972
  C   2.82875925564298      1.22587976421734      0.19513042143962
  C   3.98799608452943     -1.26359817218736     -0.16452866479609
  H   1.98507798718097     -2.00029279390290     -0.39171793140660
  C   4.21009100305331      1.08944974428443      0.24441034712125
  H   2.41134139871903      2.20472248570886      0.39631890107963
  C   4.80185056486538     -0.15870321340730      0.05978844127975
  H   4.42905354729024     -2.24547380390814     -0.29451451349493
  H   4.82376132405368      1.96014948989636      0.44666620633389
  H   5.87946179971945     -0.26678707203708      0.10365887159999
  O   -0.07943308310290     -2.03598527813367      0.12630409845589
  O   -1.31415333428546      1.86415079048329     -0.14207876225495
