27
Coordinates from ORCA-job mp2_opt
  C   -0.01316301191093      1.53068815815087      0.15963700043423
  C   -2.23184711376566      0.85798385320673      0.05204332825760
  C   -1.83764127883025     -0.47606522734150     -0.02639785327930
  C   -0.41144917036182     -0.85525297602762     -0.02329302119941
  C   0.51990703974012      0.27670233301866      0.10276764715713
  H   -3.83148713121822      2.28504170701287      0.10638212207507
  H   0.58758468582481      2.42299020673919      0.26665325036219
  C   -3.57507082007987      1.23408903246791      0.04275277529120
  C   -2.83347236515882     -1.46057279784154     -0.11843807322509
  C   -4.16945549660288     -1.10342733807535     -0.12810240259218
  C   -4.54138067640953      0.24683370662815     -0.04717944046428
  H   -2.51503572223334     -2.49448514074262     -0.18089345609612
  H   -4.93408821764362     -1.86818574222672     -0.19735246143956
  H   -5.58927974747465      0.52325891158250     -0.05519057532165
  C   1.99341925180897      0.12439493614533      0.06753942338266
  C   2.60184554384790     -1.13220833661914      0.21746844639058
  C   2.82873092290675      1.22586474544992     -0.19521374295393
  C   3.98800692055269     -1.26358257497921      0.16450543970366
  H   1.98509980421847     -2.00030240795006      0.39172223966178
  C   4.21006516368306      1.08945774149406     -0.24448549769357
  H   2.41129814826304      2.20469581001043     -0.39642986007764
  C   4.80184544026373     -0.15868034483613     -0.05983534923281
  H   4.42908098977179     -2.24544671030683      0.29451488487989
  H   4.82371984556663      1.96016241698879     -0.44676463426917
  H   5.87945764422051     -0.26675152571703     -0.10369913688798
  O   -0.07943372501157     -2.03600026014328     -0.12632035335663
  O   -1.31416192396733      1.86413982391160      0.14199830049332
