27
Coordinates from ORCA-job mp2_opt
  C   0.00106804461704      1.50735108317965      0.35416062231783
  C   -2.21361501561611      0.83027324176821      0.18188851744378
  C   -1.82131739639632     -0.48245139444978     -0.09106481824404
  C   -0.39427045671693     -0.84996295010928     -0.13107077212783
  C   0.51147366587613      0.28269489498883      0.06758976903274
  H   -3.82003161026818      2.22520726450179      0.44375701468686
  H   0.62396697815480      2.36950172413040      0.56276258440800
  C   -3.55943678506712      1.19582485701646      0.22720726594062
  C   -2.81485246461233     -1.44432514588083     -0.32742011222256
  C   -4.15166001349107     -1.09217118612461     -0.28933842135926
  C   -4.52390717376566      0.23101741040296     -0.01023752092816
  H   -2.49252075373362     -2.45777257900091     -0.53709906156997
  H   -4.91537583221826     -1.83834271304235     -0.47384885215419
  H   -5.57200611512981      0.50541125151500      0.01963883512893
  C   1.97252223447380      0.11174859005086      0.01033564565830
  C   2.60511237218536     -0.86041838396503      0.79334209478268
  C   2.74908330572164      0.95482650511615     -0.79251750179290
  C   3.99119868910155     -0.97690255195995      0.77632121184895
  H   2.00649195912148     -1.52110625136276      1.40906728351826
  C   4.13639797046965      0.83560226069917     -0.80738527526384
  H   2.25754799657700      1.69052770143265     -1.42133409285035
  C   4.76055375622640     -0.12973470684565     -0.02071128369848
  H   4.47323507508972     -1.73047834732886      1.38876143006693
  H   4.72723041776319      1.49063985395853     -1.43774832539941
  H   5.84010285251666     -0.22583337742901     -0.03269270101057
  O   -0.01398639577999     -2.00384607430418     -0.31899993466052
  O   -1.30603230509905      1.82422002304258      0.42303939844819
