27
Coordinates from ORCA-job mp2_opt
  C   -0.01158394257895      1.52701755114659      0.22045567503531
  C   -2.22818226835407      0.85430449472617      0.07918877057691
  C   -1.83342147987928     -0.47812568752948     -0.02895265120978
  C   -0.40729766190349     -0.85691546226941     -0.01701773826550
  C   0.51936206808790      0.27458380057419      0.13328003384207
  H   -3.82879230415723      2.27928148023271      0.15077178464953
  H   0.59231953547876      2.41425353589967      0.35475928278306
  C   -3.57141995640204      1.23031161272551      0.06271368109448
  C   -2.82806238985285     -1.45925102414478     -0.16086499792804
  C   -4.16381483670047     -1.10149559773994     -0.17947441707863
  C   -4.53652178595063      0.24627336205934     -0.06686924829994
  H   -2.50867450933782     -2.49123524687129     -0.24658541833633
  H   -4.92758173198348     -1.86358624356634     -0.28013762039090
  H   -5.58415062543000      0.52346259660286     -0.08183563269489
  C   1.99019416610762      0.12477693802209      0.08230581502470
  C   2.60647293865448     -1.11667717070253      0.30410374626073
  C   2.80979650746153      1.21032004669309     -0.27518102112626
  C   3.99189655397266     -1.24401846448004      0.23250410612533
  H   1.99754996512586     -1.97393905597200      0.54802778839099
  C   4.19106416168880      1.07837464146306     -0.34278964752974
  H   2.37374324654740      2.16611943562006     -0.54037457045155
  C   4.79300051503340     -0.15173457267830     -0.08434564559321
  H   4.44322506975518     -2.21196172044047      0.41920318240050
  H   4.79573331474047      1.93442438115236     -0.62040271215295
  H   5.87003581668573     -0.25784080935877     -0.14425026701774
  O   -0.06728660833188     -2.03381439159877     -0.13428927582492
  O   -1.31304375847759      1.85916457043443      0.20650999771678
