27
Coordinates from ORCA-job mp2_opt
  C   -0.03265432711804      1.56027616085895      0.29648613951894
  C   -2.22963103109275      0.82015367789174      0.14445685962427
  C   -1.80478447318059     -0.49232924505392     -0.07786272074478
  C   -0.36811359470509     -0.82300317848517     -0.10308836057284
  C   0.50508386381876      0.33881110382740      0.06289133626235
  H   -3.87087750017936      2.18334919504799      0.35043905206550
  H   0.56790487741639      2.44687390119641      0.46383961223568
  C   -3.58433140604613      1.15301175818499      0.17522739857341
  C   -2.77375091270701     -1.48738545804535     -0.27438927083787
  C   -4.11912368428636     -1.16791290720607     -0.24829360824113
  C   -4.52439953975281      0.15573575167718     -0.02267348283516
  H   -2.42612016101466     -2.50005245150992     -0.44361363972160
  H   -4.86389486387971     -1.94000529201729     -0.40110659825182
  H   -5.57905113752768      0.40483389023726     -0.00309957401205
  C   1.97197098508152      0.17903916404517      0.03582313414619
  C   2.71110043575244      0.62729882274107     -1.06247840336283
  C   2.62789378861695     -0.47152220415824      1.08484166575705
  C   4.09392127839433      0.46193731322030     -1.09446852361966
  H   2.19590033319287      1.10483842628975     -1.88972995095155
  C   4.00905595426856     -0.63694667908929      1.05103155320728
  H   2.05015403133290     -0.84436348159184      1.92366023181979
  C   4.74509900348792     -0.16810765890285     -0.03656990383870
  H   4.66029147719811      0.81788671701670     -1.94757487845767
  H   4.51175693162601     -1.13526436552835      1.87215902980318
  H   5.82089060973372     -0.29822220485640     -0.06109337361779
  O   0.04856494175010     -1.96950642985520     -0.25079812124265
  O   -1.34854388018040      1.84682367406497      0.34602839729449
