27
Coordinates from ORCA-job mp2_opt
  C   0.00113071135734      1.51410360572878      0.24249418590315
  C   -2.21914457607553      0.84555599699182      0.12364173658269
  C   -1.83207879199510     -0.48212115376550     -0.06006807687528
  C   -0.40723701218683     -0.86101745662903     -0.09080593934296
  C   0.51822004113251      0.26551808069721      0.07953004774822
  H   -3.81538076676120      2.26607231338695      0.29977313883335
  H   0.61740606261432      2.39016974782437      0.39957168475060
  C   -3.56201878567094      1.22270922556299      0.15293127946129
  C   -2.83169195100178     -1.45278785017078     -0.22564816593290
  C   -4.16651610462227     -1.09201007085400     -0.20176270795618
  C   -4.53231838740637      0.24874486305430     -0.01070498999964
  H   -2.51649958048000     -2.47957114745775     -0.37037940937618
  H   -4.93444951837125     -1.84576726293596     -0.32947668163663
  H   -5.57911792502082      0.52885020656506      0.00798630242176
  C   1.98086697372240      0.10176433770604     -0.01311294896840
  C   2.79260554674816      1.15932770316355     -0.45317815158194
  C   2.60096796934535     -1.07503438100668      0.43191897729949
  C   4.17790161581507      1.04280152692335     -0.45964908650363
  H   2.33904668294443      2.06322329890469     -0.84525533474414
  C   3.98864651462949     -1.18670434511330      0.42337459160202
  H   1.99187444459329     -1.89781652625563      0.77839071812252
  C   4.78359336312478     -0.13170560801831     -0.01749664955054
  H   4.78346953321168      1.86740252922589     -0.81840244383548
  H   4.44975090924848     -2.10531662367792      0.76827923893722
  H   5.86334749151488     -0.22600460964880     -0.02720520387506
  O   -0.05617274784494     -2.02839001515844     -0.25676635566809
  O   -1.30142971256515      1.84465461495711      0.28306124418474
