27
Coordinates from ORCA-job mp2_opt
  C   0.00112627332125      1.51419398779915     -0.24314944734442
  C   -2.21920771391713      0.84591290339675     -0.12386305680244
  C   -1.83218837823582     -0.48183137316019      0.05976778969256
  C   -0.40736213475833     -0.86091772572716      0.08985549127352
  C   0.51820940835101      0.26556518314414     -0.08015732390094
  H   -3.81570339334312      2.26614627647728     -0.29955648393013
  H   0.61749536592930      2.39015953573378     -0.40046462282687
  C   -3.56215218405116      1.22281949157377     -0.15266656472924
  C   -2.83154297989009     -1.45266167647326      0.22590125794628
  C   -4.16642367366981     -1.09200883481591      0.20258235567498
  C   -4.53221380426825      0.24872452366435      0.01148801203627
  H   -2.51577032396088     -2.47929000146763      0.37052645194153
  H   -4.93439731581213     -1.84566267383410      0.33073143359991
  H   -5.57904564889053      0.52882243589263     -0.00683674336860
  C   1.98069975832906      0.10150085379530      0.01277929168681
  C   2.79231325372646      1.15911521896089      0.45315805527923
  C   2.60121280362978     -1.07516954329190     -0.43197451271036
  C   4.17761655880663      1.04279241790329      0.46020585405336
  H   2.33876903519475      2.06303334592407      0.84524736851582
  C   3.98889953922881     -1.18666364634717     -0.42282983193762
  H   1.99240891577581     -1.89802132215216     -0.77881641282193
  C   4.78366282500321     -0.13165318891022      0.01830362019182
  H   4.78285048614066      1.86753064074067      0.81924350542895
  H   4.45006571408456     -2.10532816659966     -0.76756110357679
  H   5.86342588745813     -0.22590606860278      0.02842589119936
  O   -0.05635120945858     -2.02848207342522      0.25487601931091
  O   -1.30140906472361      1.84470547980129     -0.28369829388199
