27
Coordinates from ORCA-job mp2_opt
  C   -0.00995616522982      1.53597721810417     -0.28403523854681
  C   -2.21900339499102      0.82913376491262     -0.14795428457309
  C   -1.81580536190470     -0.48974467463768      0.07701321388776
  C   -0.38453528513734     -0.84203508068860      0.11096967221892
  C   0.50713781954163      0.30640716348620     -0.04625676351504
  H   -3.83808447853491      2.21702446428467     -0.36358361449119
  H   0.60545626529737      2.41314289935229     -0.44693290109126
  C   -3.56825013173498      1.18244765264990     -0.18696445008207
  C   -2.80076680452831     -1.47006782012989      0.26746226340399
  C   -4.14093730489579     -1.13010240790966      0.23327089501570
  C   -4.52440684189482      0.19955076803868      0.00533206324562
  H   -2.46928833771649     -2.48780318618929      0.43844156992031
  H   -4.89844271630698     -1.89057048386701      0.38141799689120
  H   -5.57493479906845      0.46484181583959     -0.02040341231281
  C   1.97173579131501      0.12764009175869     -0.01225078700226
  C   2.63068580129252     -0.48386865481383     -1.08260487994366
  C   2.71665256146618      0.60459905687527      1.06982404458236
  C   4.01572472845088     -0.61639405472330     -1.06828356644299
  H   2.05150657893492     -0.85816292188558     -1.91976710538980
  C   4.10334812421111      0.47191588103471      1.08242697573285
  H   2.20235126945451      1.07237897798104      1.90312232553340
  C   4.75497894497991     -0.13706789032011      0.01259378387113
  H   4.51966006149930     -1.09017862812967     -1.90300986420710
  H   4.67312679074653      0.84366907818042      1.92642960681352
  H   5.83392176412992     -0.23979467854075      0.02105038800213
  O   0.01444811876570     -1.99522231229574      0.25889715697637
  O   -1.32103699814187      1.84218396163282     -0.34399708849717
