27
Coordinates from ORCA-job mp2_opt
  C   0.00072912049367      1.50944345456181      0.34896732866350
  C   -2.21368248642424      0.82886123737303      0.18219381801833
  C   -1.82066355241779     -0.48281527661435     -0.09536283322600
  C   -0.39303822534761     -0.84734050477511     -0.14085528540668
  C   0.51052890901822      0.28726782867872      0.05389825150317
  H   -3.82143162073751      2.22054173319467      0.45301537024071
  H   0.62345892653835      2.37199604704739      0.55657709102751
  C   -3.55995443952155      1.19203304072948      0.23340984326784
  C   -2.81353720970807     -1.44590712462640     -0.32917610753767
  C   -4.15076828649643     -1.09601132641792     -0.28486462322422
  C   -4.52384987914054      0.22613352661559     -0.00208412923713
  H   -2.49038848654075     -2.45851601577519     -0.54168593607036
  H   -4.91410224726221     -1.84307453729873     -0.46733763529549
  H   -5.57224418659063      0.49885708617051      0.03246341976754
  C   1.97200034659413      0.11169632454849      0.00265881880749
  C   2.60509047056450     -0.79809018444355      0.85632940001004
  C   2.74684283655681      0.89650616428367     -0.85770901284201
  C   3.99098043045212     -0.91682179071670      0.84634097086573
  H   2.00618002030894     -1.41140286701736      1.51962591053855
  C   4.13440677101235      0.77592806589285     -0.86528647518733
  H   2.25400159908261      1.58856405461587     -1.53326893203835
  C   4.75913925422537     -0.12983632767881     -0.01129739809097
  H   4.47378303427778     -1.62273183186410      1.51259651344553
  H   4.72503608461828      1.38518627344978     -1.54014948270116
  H   5.83868177860524     -0.22643616170493     -0.01733437822067
  O   -0.00908025725097     -2.00004392901766     -0.32799449887032
  O   -1.30701270491004      1.82393404078899      0.42309799179243
