27
Coordinates from ORCA-job mp2_opt
  C   -0.02794187537385      1.57900015228253     -0.01120339409715
  C   -2.22803000694779      0.83208573186029     -0.00619270092049
  C   -1.80818099745439     -0.50060205043730      0.00776415570570
  C   -0.37241449814685     -0.83687252241185      0.01343239055289
  C   0.50402098464610      0.33359998435458      0.00281472450718
  H   -3.86422053183342      2.21658948943803     -0.02327290938693
  H   0.57606230046989      2.47875881121691     -0.02079254798792
  C   -3.58168037117153      1.17048120554318     -0.01250474412645
  C   -2.78098191360868     -1.51082361286535      0.01506005378249
  C   -4.12539367589405     -1.18658954500999      0.00857213029816
  C   -4.52573104509085      0.15743261981387     -0.00511298469882
  H   -2.43720786819354     -2.53878460689989      0.02548033890284
  H   -4.87307805118514     -1.97098488042039      0.01399838002498
  H   -5.57972144932879      0.40987163216877     -0.01009682655203
  C   1.97220042006552      0.16485616056995      0.00187126532676
  C   2.67574554184713      0.09889332958987      1.20737333549568
  C   2.66707499649472      0.05566260854466     -1.20561734780507
  C   4.05947127549837     -0.05793598970254      1.20458478358171
  H   2.13306903849248      0.17107847804416      2.14405094555406
  C   4.05071311163958     -0.10105103764217     -1.20715682962234
  H   2.11760858834166      0.09408260018987     -2.14031464055442
  C   4.74921112730261     -0.15595701256387     -0.00243220343581
  H   4.59866127488683     -0.10367845477322      2.14401275527483
  H   4.58314057010174     -0.18028872938812     -2.14821226106739
  H   5.82644989814963     -0.27641656556470     -0.00415822925810
  O   0.04033917097379     -1.99433740861104      0.02471601814525
  O   -1.34303601468120      1.87559361267375     -0.01496465763962
