27
Coordinates from ORCA-job mp2_opt
  C   -0.00597997953135      1.51747383058267      0.32753982248501
  C   -2.21903698063014      0.84021271990417      0.14849106480499
  C   -1.82281495047005     -0.48199075434977     -0.05991657012343
  C   -0.39611156632886     -0.85462437369753     -0.06621952343822
  C   0.51551153043599      0.27734767790816      0.12770876657038
  H   -3.82636943159650      2.24778962488341      0.32485615725292
  H   0.60912610693482      2.38933474685947      0.51496544290553
  C   -3.56440481446555      1.20965570973091      0.15737782427488
  C   -2.81399275511234     -1.45239601986193     -0.27125432743119
  C   -4.15069917804336     -1.09796124347325     -0.26892570057763
  C   -4.52628849828118      0.23610408093166     -0.05247641055883
  H   -2.49016088460898     -2.47389528774220     -0.43364934697942
  H   -4.91221188683545     -1.85115690074912     -0.43301744594240
  H   -5.57447530101084      0.51170621056434     -0.05036519708535
  C   1.97833352105572      0.12436318309294      0.05895926964688
  C   2.60942867121420     -1.01910010161664      0.56657420507921
  C   2.76348405156820      1.11624658348041     -0.54679115688369
  C   3.99471721667111     -1.13943821880166      0.50637500900066
  H   2.01290412674525     -1.80364525936461      1.01186013250075
  C   4.14761219138799      0.99157403784515     -0.60425699131059
  H   2.28394064234848      1.97431043295936     -1.00644651331584
  C   4.76920103545857     -0.13695664751105     -0.07386799408494
  H   4.47043501770253     -2.02592390692258      0.91033777353260
  H   4.73792663855076      1.76657558654181     -1.08004539349666
  H   5.84705339852289     -0.23966720579450     -0.12448129412662
  O   -0.02946242482944     -2.01696281479632     -0.23086175416638
  O   -1.31132849685249      1.84052630939671      0.35512815146737
