27
Coordinates from ORCA-job mp2_opt
  C   -0.00261105709701      1.51598573541624     -0.34709779649410
  C   -2.21525243263404      0.82812967226792     -0.18133619141301
  C   -1.81874517297964     -0.48334650357606      0.09257026301451
  C   -0.38992419358244     -0.84345847316433      0.13554618284061
  C   0.50943280281925      0.29486628760745     -0.05459762631338
  H   -3.82710079759193      2.21626720533137     -0.44595686502172
  H   0.61766959253685      2.38146786908192     -0.54977688378071
  C   -3.56256947500447      1.18783233517888     -0.22970700167456
  C   -2.80874470638283     -1.44971222457676      0.32465819095950
  C   -4.14694915750662     -1.10318659743878      0.28297320343265
  C   -4.52368145787155      0.21879855169567      0.00443838010255
  H   -2.48263757360084     -2.46206799250485      0.53388344118601
  H   -4.90814582609035     -1.85270941535331      0.46429481263897
  H   -5.57280491488807      0.48900222445380     -0.02775605757138
  C   1.97176268279952      0.11681016400418     -0.00704808478947
  C   2.61094977795173     -0.71470220252332     -0.93232366966873
  C   2.73882891131511      0.82158133712400      0.92570849732249
  C   3.99629015636442     -0.83994537378460     -0.91890546916752
  H   2.01642570697084     -1.26474496500336     -1.65311876637964
  C   4.12606152338720      0.69507104342883      0.93693657341201
  H   2.24050822381480      1.45694397124205      1.65102291892532
  C   4.75701899909346     -0.13501973417431      0.01350762520984
  H   4.48430288572439     -1.48564210217683     -1.64014498854315
  H   4.71170202525284      1.24188575450816      1.66731004554505
  H   5.83615055982024     -0.23595838201668      0.02231871538818
  O   -0.00048335009949     -1.99518394057694      0.31651122004762
  O   -1.31164373252135      1.82658075552965     -0.42063666920793
