27
Coordinates from ORCA-job mp2_opt
  C   0.00105860449204      1.50735105447382     -0.35413597791993
  C   -2.21362134141554      0.83025739573367     -0.18187625181045
  C   -1.82131623619820     -0.48247175871263      0.09104329834900
  C   -0.39426607430555     -0.84997492241030      0.13103645016559
  C   0.51147172627554      0.28269236770465     -0.06759228472845
  H   -3.82005603520574      2.22518867644945     -0.44370594102287
  H   0.62395419375849      2.36951098191391     -0.56271420940930
  C   -3.55944462398494      1.19580466175060     -0.22718220687872
  C   -2.81484495360034     -1.44435708102795      0.32738178014634
  C   -4.15165368048878     -1.09220827450238      0.28931638557024
  C   -4.52390757515706      0.23098515141045      0.01024675650159
  H   -2.49249691685055     -2.45780560149605      0.53703270557569
  H   -4.91536964580954     -1.83838447021612      0.47381101111687
  H   -5.57200902891648      0.50537288132990     -0.01961876949762
  C   1.97252114362609      0.11174827014028     -0.01034444548123
  C   2.60510961081246     -0.86039801336326     -0.79337711223049
  C   2.74908494997282      0.95480157907743      0.79253108113743
  C   3.99119675983215     -0.97688428419727     -0.77636252432882
  H   2.00649600688433     -1.52107022775953     -1.40912630876142
  C   4.13639964228835      0.83557339289778      0.80739492271517
  H   2.25755142689619      1.69048833565022      1.42136683009811
  C   4.76055440011302     -0.12974360730283      0.02069569932330
  H   4.47322363651623     -1.73044737602375     -1.38882638821235
  H   4.72722955095321      1.49059321848273      1.43777946661353
  H   5.84010381269979     -0.22584340231143      0.03267706080375
  O   -0.01397313334689     -2.00385973558755      0.31893149523365
  O   -1.30604321984107      1.82421378789616     -0.42300852306861
