27
Coordinates from ORCA-job mp2_opt
  C   -0.00315035478004      1.50795110430569      0.34841583520444
  C   -2.21644800629297      0.82961197924829      0.17054148509506
  C   -1.82144031430319     -0.48606383994973     -0.08157668238551
  C   -0.39436094584137     -0.85517885226361     -0.10720618765014
  C   0.51267254458565      0.27713738768317      0.09406730680607
  H   -3.82447418077015      2.22798607469647      0.40281325088612
  H   0.61650253143774      2.37358184367061      0.55142600081650
  C   -3.56241502105538      1.19591584972785      0.20135661581571
  C   -2.81315436825712     -1.45081132108660     -0.31446957310073
  C   -4.15018476537881     -1.09829686667854     -0.29148269250057
  C   -4.52496432095221      0.22806174276796     -0.03116729399555
  H   -2.48926784369855     -2.46660387994441     -0.50972414175962
  H   -4.91229102561880     -1.84680342503398     -0.47320992847980
  H   -5.57331497997337      0.50246630554617     -0.01260352296971
  C   1.97389261991583      0.11698622403098      0.02651037117654
  C   2.75083200814245      1.04057604987115     -0.68446569224769
  C   2.60879586473877     -0.94402949302035      0.68339243609192
  C   4.13713304647064      0.92157061343909     -0.71984796978286
  H   2.26073763139693      1.83794186946112     -1.23419244682267
  C   3.99493236223179     -1.05878103909496      0.64660517973523
  H   2.01339283435155     -1.67154035504575      1.22043931603259
  C   4.76340521713784     -0.12756218760165     -0.05064934786429
  H   4.72558837555862      1.64048523199058     -1.27879272316778
  H   4.47728467200601     -1.88079836916922      1.16328068437247
  H   5.84256080529295     -0.22460201083738     -0.08009132721203
  O   -0.01845107190391     -2.01154528920794     -0.28975163795320
  O   -1.30986631444090      1.82622265249498      0.40234968585950
