27
Coordinates from ORCA-job mp2_opt
  C   -0.01034527302875      1.52436818350211      0.25946994540763
  C   -2.22533953080454      0.85037505305074      0.10037703588127
  C   -1.82976150297926     -0.47986752096391     -0.03566905124328
  C   -0.40350079149095     -0.85732354100627     -0.02382298164716
  C   0.51852257026288      0.27420824015651      0.14341712266298
  H   -3.82773331471104      2.27167577716339      0.19724439849762
  H   0.59657562000288      2.40723468167003      0.41219391283459
  C   -3.56902434945322      1.22517375623915      0.08652540579472
  C   -2.82320193079432     -1.45804988145529     -0.19531769226180
  C   -4.15908299418647     -1.10068711179275     -0.21291732890707
  C   -4.53294528225429      0.24393586834005     -0.07064825877871
  H   -2.50265873885114     -2.48767705535958     -0.30281746534875
  H   -4.92190088082780     -1.86047442669333     -0.33559496549661
  H   -5.58062019470495      0.52104247409223     -0.08450978907382
  C   1.98689207449668      0.12565089648854      0.08378931652902
  C   2.60908628085610     -1.09695385886556      0.37825683823374
  C   2.79417339825573      1.19180389852712     -0.34879006060326
  C   3.99415779291395     -1.22155602837832      0.30197462392340
  H   2.00564805828750     -1.94021889182116      0.67986043336709
  C   4.17584982750869      1.06284103793327     -0.42110925928558
  H   2.34289243669851      2.12385333565563     -0.66936124926189
  C   4.78542340532482     -0.14623220301545     -0.09129355286388
  H   4.45392853340805     -2.17302672692748      0.54434804572853
  H   4.77427114009268      1.90158070852606     -0.75854729130584
  H   5.86231931476702     -0.25118356917271     -0.15562756661133
  O   -0.05562121681891     -2.03019103579555     -0.15502411810320
  O   -1.31271445196986      1.85442093990250      0.25383755193160
