27
Coordinates from ORCA-job mp2_opt
  C   0.00185152239282      1.51103762830800      0.27599883500590
  C   -2.21726379246837      0.84210615035855      0.13840042692702
  C   -1.82956370334100     -0.48312071903458     -0.06442030867968
  C   -0.40460006882321     -0.86112522402019     -0.09182187198211
  C   0.51696516704379      0.26598437678263      0.08737005094168
  H   -3.81553277145229      2.25838973280213      0.32834687558071
  H   0.62049590021196      2.38318949876242      0.44765889549749
  C   -3.56066721843921      1.21764739598809      0.16618468846439
  C   -2.82780414697306     -1.45132211666996     -0.25100975467831
  C   -4.16286752348195     -1.09132360102538     -0.22941594969811
  C   -4.52966923386820      0.24616972900769     -0.01888154662022
  H   -2.51084830061797     -2.47553378728485     -0.40973994308501
  H   -4.93001661201544     -1.84284538269309     -0.37384929800107
  H   -5.57660060774964      0.52598352675202     -0.00185809999737
  C   1.97838845008631      0.10250629163390     -0.00149124163229
  C   2.77991016186244      1.13470326011682     -0.51222792697702
  C   2.60345596462930     -1.04949475473061      0.49621136760716
  C   4.16572640953696      1.02021523532118     -0.52815711331983
  H   2.31470803903776      2.01392728842858     -0.94548657973157
  C   3.99092005662297     -1.15917855093172      0.47824547735013
  H   1.99879733246741     -1.85369299474768      0.89208668643857
  C   4.77789458565646     -0.12785129459483     -0.02940286903670
  H   4.76609538102056      1.82368496325218     -0.93975939229568
  H   4.45871973769580     -2.05697488264292      0.86622727115476
  H   5.85764644789218     -0.22120132541288     -0.04650213612252
  O   -0.04757485190324     -2.02601726125431     -0.26135375107164
  O   -1.30150032502314      1.83955781752880      0.31995820796132
