27
Coordinates from ORCA-job mp2_opt
  C   -0.00918723278190      1.52268610386868     -0.28777364182372
  C   -2.22307312941190      0.84701726086082     -0.11858754407410
  C   -1.82674243483672     -0.48065295650789      0.04384187158797
  C   -0.40025039102186     -0.85630176350561      0.03630613931984
  C   0.51756872459836      0.27540228356945     -0.14349113428735
  H   -3.82795351639235      2.26314302714065     -0.24339631926241
  H   0.60055070982135      2.40166776071411     -0.45436287934763
  C   -3.56751020011063      1.21951269193614     -0.11152426933559
  C   -2.81875641523690     -1.45648877455899      0.22479819555637
  C   -4.15504196437311     -1.10044808379430      0.23698295805470
  C   -4.53009106676611      0.24056028093577      0.06698194383788
  H   -2.49628691197765     -2.48323100108384      0.35262999913816
  H   -4.91703494192716     -1.85810073769423      0.37667747303121
  H   -5.57802424392817      0.51695428116376      0.07622187430934
  C   1.98363559077530      0.12637921539451     -0.07897041979276
  C   2.60985003898515     -1.07370391078826     -0.44570187389796
  C   2.78164073902382      1.16996832456547      0.41803223860720
  C   3.99478163329074     -1.19676076010139     -0.37130361977997
  H   2.00989562941972     -1.89992038482261     -0.79887128177629
  C   4.16399304400226      1.04267458152833      0.48868992487989
  H   2.31858919169706      2.07791307583698      0.78863041872051
  C   4.77887643771846     -0.14255922777525      0.08974738996052
  H   4.46101489389868     -2.12932233114224     -0.66855962520230
  H   4.75836410892874      1.86181174724414      0.87749995092015
  H   5.85589055501723     -0.24710715872281      0.15279807829790
  O   -0.04501606512689     -2.02524407014260      0.18059133162760
  O   -1.31267178328551      1.85009352588120     -0.29264917926919
