27
Coordinates from ORCA-job mp2_opt
  C   0.00181643189883      1.51101004040995     -0.27609433815477
  C   -2.21728795559242      0.84205067689273     -0.13844223966272
  C   -1.82956556054096     -0.48316110613487      0.06442657347186
  C   -0.40459829147282     -0.86114769136778      0.09180326398054
  C   0.51695064310827      0.26597041252143     -0.08742948941280
  H   -3.81556981902592      2.25830654218223     -0.32844877153637
  H   0.62044892475612      2.38316559805953     -0.44778182976221
  C   -3.56069707336129      1.21757315847246     -0.16623809982845
  C   -2.82778779637266     -1.45135881555838      0.25111918991127
  C   -4.16285343531746     -1.09138187744244      0.22951905619055
  C   -4.52967889393824      0.24609477721798      0.01892084497019
  H   -2.51081462945141     -2.47555725952207      0.40989439411384
  H   -4.93000031730029     -1.84289183361115      0.37402932979967
  H   -5.57661639291336      0.52588535496000      0.00189819456842
  C   1.97837386872627      0.10251187782799      0.00145944542800
  C   2.77986836152032      1.13473282067901      0.51219131196828
  C   2.60347019829847     -1.04948659383797     -0.49621359175307
  C   4.16568614884972      1.02026049044530      0.52816324297186
  H   2.31464291300931      2.01395814202286      0.94542348491128
  C   3.99093515894098     -1.15915212620196     -0.47820795623611
  H   1.99883271500619     -1.85369622883145     -0.89209673167727
  C   4.77788214168893     -0.12781002395116      0.02945256065076
  H   4.76603486471185      1.82374451724180      0.93976880693502
  H   4.45876120635860     -2.05694669202464     -0.86616300763883
  H   5.85763471458448     -0.22115196081724      0.04658736540428
  O   -0.04755628061787     -2.02603149963675      0.26135379757007
  O   -1.30154084555363      1.83950730000458     -0.32006080718327
