27
Coordinates from ORCA-job mp2_opt
  C   -0.00191483942098      1.51104481275040     -0.35092877112459
  C   -2.21560575673996      0.83459143332667     -0.17151759864202
  C   -1.82144273805929     -0.48210666412948      0.07641188568604
  C   -0.39469872140960     -0.85277936834100      0.09918224720957
  C   0.51343015593469      0.27885073100886     -0.10177457040690
  H   -3.82261276480453      2.23514114887312     -0.39771686340240
  H   0.61802332355839      2.37672799252325     -0.55271846430553
  C   -3.56125878804858      1.20228014553416     -0.19944584547243
  C   -2.81374350888533     -1.44652641160161      0.30818468552523
  C   -4.15046490385956     -1.09269347196998      0.28802735358365
  C   -4.52438182809652      0.23470941835928      0.03181809386509
  H   -2.49056307870620     -2.46313286610059      0.50030124922076
  H   -4.91301326690793     -1.84097242985070      0.46881775758984
  H   -5.57249724436594      0.51013034971781      0.01546505273973
  C   1.97460126300139      0.11816425526685     -0.03495437144172
  C   2.60801138962420     -0.95061718010609     -0.68072973280408
  C   2.75285751402585      1.04520520362531      0.67028560953650
  C   3.99388378626735     -1.06794133435535     -0.64135516343147
  H   2.01176194742528     -1.68164389764681     -1.21186273488322
  C   4.13879642592044      0.92357567601320      0.70822767898813
  H   2.26418451454899      1.84759901513667      1.21389567338929
  C   4.76365146486030     -0.13246459568057      0.04863747840700
  H   4.47493108615905     -1.89578422254287     -1.14987149238306
  H   4.72803017365475      1.64555882482381      1.26236784692859
  H   5.84253889046539     -0.23169501302380      0.08037262237442
  O   -0.02024284080613     -2.00998062099363      0.27956996765341
  O   -1.30831465533550      1.83085106938310     -0.40167959439982
