27
Coordinates from ORCA-job mp2_opt
  C   -0.00801797977385      1.51240739683812     -0.36167961538877
  C   -2.21828619209513      0.82617730693387     -0.17546243417467
  C   -1.81813846276926     -0.48611828065452      0.08715746358512
  C   -0.38949220477070     -0.84888227726750      0.11441382312492
  C   0.51121266518683      0.28715853344302     -0.09128763947661
  H   -3.83228322767595      2.21594268033278     -0.41746583879444
  H   0.60919666935695      2.37843429451092     -0.57098449742947
  C   -3.56584152156341      1.18655049879194     -0.20819053243129
  C   -2.80585876532550     -1.45312420860787      0.32733226555499
  C   -4.14433417999059     -1.10628628781400      0.30207734194683
  C   -4.52441025511207      0.21662827174213      0.03220881669233
  H   -2.47773229481305     -2.46616186317183      0.52980844375724
  H   -4.90336811783432     -1.85650345292548      0.48950115840326
  H   -5.57385155298696      0.48675405844978      0.01209258219980
  C   1.97317787965825      0.12809655017928     -0.03386817847189
  C   2.74578292221859      1.00241665877356      0.74002869096681
  C   2.60818538911329     -0.89663545715861     -0.74505805826597
  C   4.13169760061059      0.87613768724839      0.77875796874928
  H   2.25213665350467      1.76948709802675      1.32840443071251
  C   3.99336907460475     -1.01954801431659     -0.70442780398242
  H   2.01346205438510     -1.58933289213839     -1.32777552859584
  C   4.75909966829801     -0.13442810900145      0.05367099314347
  H   4.71854066052478      1.55795764540868      1.38396262469185
  H   4.47717149661047     -1.81186282404994     -1.26433960570878
  H   5.83765248753586     -0.23722961917740      0.08539197111194
  O   -0.00611727243925     -2.00211098376496      0.30012300550530
  O   -1.31641719445810      1.82496558936935     -0.41724184742550
