27
Coordinates from ORCA-job mp2_opt
  C   -0.00033898597770      1.50869917049660      0.35583315873110
  C   -2.21448720767655      0.83222355830220      0.17856879043402
  C   -1.82127776620912     -0.48212877282516     -0.08415424635854
  C   -0.39440529565732     -0.85130950002239     -0.11569657531973
  C   0.51241082834896      0.28062334203077      0.08551366355569
  H   -3.82123998458154      2.22967273632253      0.42462757635733
  H   0.62126615261400      2.37219179724269      0.56240165779132
  C   -3.56024815047451      1.19888562669682      0.21536905401241
  C   -2.81418288768336     -1.44474817884957     -0.32044953858220
  C   -4.15094534195602     -1.09164898898344     -0.29127065516010
  C   -4.52402814275858      0.23320691490758     -0.02120400788398
  H   -2.49140239408679     -2.45945173904986     -0.52315555383936
  H   -4.91405782229073     -1.83845178058729     -0.47572724477918
  H   -5.57213190247593      0.50820464005968      0.00200888321457
  C   1.97336412214542      0.11498504881612      0.02268856419090
  C   2.60646265694922     -0.90910422126655      0.73673945184636
  C   2.75049011934109      1.00322156294826     -0.73063115131420
  C   3.99245920042527     -1.02599218088016      0.70845564770154
  H   2.00911950306601     -1.60749352038937      1.30987283743930
  C   4.13717639120699      0.88267584034432     -0.75724853693627
  H   2.25992317372897      1.77464480553334     -1.31587208068194
  C   4.76179871079044     -0.13154204306679     -0.03488739912911
  H   4.47429753280521     -1.81936777003695      1.26855090591024
  H   4.72713116386274      1.57352462717003     -1.34903479833908
  H   5.84105239067874     -0.22936332019107     -0.05669906064612
  O   -0.01682841083348     -2.00656240252357     -0.30124131525773
  O   -1.30713665330145      1.82692974780122      0.41636997304277
