27
Coordinates from ORCA-job mp2_opt
  C   -0.00259911887078      1.51602438664765      0.34700820011088
  C   -2.21524229733425      0.82816352779859      0.18128883479468
  C   -1.81874280316082     -0.48333802393192     -0.09250630618455
  C   -0.38992365945049     -0.84345992994287     -0.13545286915396
  C   0.50943688452655      0.29487371487902      0.05462668912059
  H   -3.82707285071975      2.21633215604567      0.44580059060213
  H   0.61768081100930      2.38152328951734      0.54961411761395
  C   -3.56255857464295      1.18787440887642      0.22963858770233
  C   -2.80874938921510     -1.44971866996405     -0.32450822206799
  C   -4.14695025104453     -1.10318446187366     -0.28284096819114
  C   -4.52367683953667      0.21882754331081     -0.00441761048706
  H   -2.48264688443663     -2.46209333935403     -0.53364733721925
  H   -4.90815391342651     -1.85271750376979     -0.46408956339914
  H   -5.57279943813748      0.48903406981998      0.02776031993689
  C   1.97176504839210      0.11680428690570      0.00709940148155
  C   2.61093913409585     -0.71462904283804      0.93245496953782
  C   2.73883890559822      0.82146611102155     -0.92573266064420
  C   3.99627661423155     -0.83989796125067      0.91904729623074
  H   2.01640179275068     -1.26458487955864      1.65330519581170
  C   4.12606888628136      0.69492898588892     -0.93695204649446
  H   2.24053119402042      1.45676250417115     -1.65111324807330
  C   4.75701357363134     -0.13507898554909     -0.01344075904311
  H   4.48428650882676     -1.48552868675832      1.64034708427870
  H   4.71172138381263      1.24165313116559     -1.66738325660555
  H   5.83614308366829     -0.23603630478145     -0.02224560697752
  O   -0.00048334961195     -1.99519773484853     -0.31634547042064
  O   -1.31163245125713      1.82663440837267      0.42050263773990
