27
Coordinates from ORCA-job mp2_opt
  C   -0.00972114603877      1.53465694434880      0.28301660693151
  C   -2.21899427441832      0.82839440277842      0.14721975196509
  C   -1.81618318023799     -0.49066596476376     -0.07724797708873
  C   -0.38492149333707     -0.84334934428594     -0.11143083843204
  C   0.50708327151191      0.30490816026775      0.04554917781471
  H   -3.83735679024881      2.21733978423681      0.36257381937433
  H   0.60585128603422      2.41180972546039      0.44567479991631
  C   -3.56808132159955      1.18253056354310      0.18629993872578
  C   -2.80177291673195     -1.47051143663326     -0.26701747864789
  C   -4.14179489472829     -1.12991878787016     -0.23272118193258
  C   -4.52482198270867      0.20001130446310     -0.00539041842220
  H   -2.47112916804507     -2.48862500381822     -0.43764388778744
  H   -4.89956039472259     -1.89027372710679     -0.38041308904861
  H   -5.57527623378675      0.46568815207063      0.02041267327193
  C   1.97203849518699      0.12678320459417      0.01200896432031
  C   2.63110557516214     -0.48421534407756      1.08260902235695
  C   2.71690712262120      0.60445765040403     -1.06982493373723
  C   4.01627643202878     -0.61559347219558      1.06874405942835
  H   2.05181032319289     -0.85897086263081      1.91953332552316
  C   4.10374256994680      0.47298842427481     -1.08189576421361
  H   2.20237515954440      1.07192188664611     -1.90320313015286
  C   4.75545521563535     -0.13558296906327     -0.01187238312556
  H   4.52042516612808     -1.08906019629113      1.90357023390647
  H   4.67364503782406      0.84523285347214     -1.92564826429364
  H   5.83452759745859     -0.23742732639191     -0.01998109472295
  O   0.01355770976874     -1.99656280504102     -0.25867727725856
  O   -1.32062716544034      1.84119318360917      0.34290934532899
