27
Coordinates from ORCA-job mp2_opt
  C   -0.00383127768848      1.51392349551405     -0.34104883518405
  C   -2.21715213131317      0.83716248901264     -0.16105364723574
  C   -1.82197327921557     -0.48228411744100      0.06820980115981
  C   -0.39528067624867     -0.85406269105104      0.08258997677877
  C   0.51444663774782      0.27766167207099     -0.11547913885065
  H   -3.82437303457938      2.24127319791531     -0.36308429569071
  H   0.61393719084828      2.38243848444455     -0.53636056559572
  C   -3.56267807498150      1.20581984534570     -0.17934502943753
  C   -2.81367908352713     -1.44948444042234      0.29108577425707
  C   -4.15038841924889     -1.09520558364725      0.28008097076082
  C   -4.52515573046235      0.23546391354133      0.04254444303180
  H   -2.49013399836653     -2.46848914234167      0.46919962185746
  H   -4.91238921188618     -1.84576629453080      0.45362630630191
  H   -5.57329876770891      0.51109844176819      0.03347804982919
  C   1.97622842408676      0.12122063781464     -0.04679714824357
  C   2.60902218549395     -0.98723142859265     -0.62366948766775
  C   2.75710914661875      1.08286073224342      0.60908559499893
  C   3.99467444821676     -1.10559030907274     -0.57376212647462
  H   2.01309254287427     -1.74695514372609     -1.11208063517184
  C   4.14220077533248      0.96004414221265      0.65710040471738
  H   2.27204175124710      1.91390769296327      1.11106850994016
  C   4.76610585286890     -0.13404417892833      0.06161288208323
  H   4.47371888557082     -1.96434332052446     -1.03026017814053
  H   4.73153577499161      1.71008533086725      1.17249272610513
  H   5.84453887864424     -0.23476834928835      0.10289355856896
  O   -0.02445954731082     -2.01369766642602      0.25561014449659
  O   -1.30975126200417      1.83538659027876     -0.38059367719451
