18
Coordinates from ORCA-job mp2_opt
  O   -1.70079465877298     -1.04412878361219      0.00026805536978
  C   -1.02235390303894      0.12706033314338     -0.00002630116404
  C   0.43157812848370      0.05626310448500     -0.00000265632047
  C   1.08870176289939     -1.18062754663122     -0.00017795389132
  C   1.18679035073241      1.23554820084181      0.00019569339401
  C   2.47864885598225     -1.22977342093387     -0.00016603066148
  H   0.50813543745182     -2.09539186182745     -0.00032676051592
  C   2.57556303651225      1.17709988525633      0.00020020115108
  H   0.68755162770918      2.19802461076028      0.00037588092728
  C   3.22825765019013     -0.05484402232835      0.00000704236352
  H   2.97892592543376     -2.19151698031923     -0.00030532813108
  H   3.15033342379070      2.09630135433252      0.00034950380437
  H   4.31122267046040     -0.09799559357308      0.00001241287774
  C   -1.92439826680982      1.15934159152202     -0.00046817576378
  H   -1.72024131082454      2.21635078445066     -0.00090856779908
  C   -3.17686255836862      0.51658896521584     -0.00001202163161
  H   -4.16809860197915      0.94412211057536     -0.00004849466604
  N   -3.05709356985194     -0.80106273135781      0.00023950065701
