19
Coordinates from ORCA-job opt
  C   -2.96476615536734      0.64633722554192     -0.81403745237926
  C   -0.87457940717917      1.49685564437058      0.04407919283938
  C   -1.57701819604134      2.35491694304431      0.89780786028712
  C   -2.96732819352738      2.35322629380290      0.89007212173521
  C   -3.66574141819133      1.50095737761633      0.03578489195936
  H   -3.50441047077397     -0.01791229935282     -1.47957590983116
  H   -1.02358858427135      3.01251976784528      1.55658693888885
  H   -3.50896114780271      3.01892459072173      1.55253917177235
  H   -4.74990136667458      1.50290384052157      0.03219684133450
  C   0.59969645494398      1.49513523838843      0.04801576476154
  C   2.56170914811056      0.70184895134552     -0.73494521443149
  H   3.10150984476475      0.03358549722050     -1.39877772769021
  N   1.23281606191047      0.65584481288092     -0.78586008597685
  N   1.23031377117778      2.33281103267277      0.88537704173655
  N   3.29220917464320      1.49188316427863      0.05530332107384
  C   2.55936016098008      2.28360145266619      0.84165789946219
  H   3.09716454118159      2.95061292735570      1.50836372880776
  C   -1.57444403528576      0.64060922636888     -0.81357316944020
  H   -1.01904018259748     -0.01866068728935     -1.46901621490949
