19
Coordinates from ORCA-job opt
  C   -2.96811739049384      0.36836963500425      0.45865815477516
  C   -0.87458101668558      1.49717306959623      0.04450382926732
  C   -1.57365190616550      2.63298814721729     -0.37948559473500
  C   -2.96397592202231      2.62910866364515     -0.38185220864052
  C   -3.66574799164468      1.49908572617378      0.03588748235602
  H   -3.51038870138927     -0.51200289970031      0.78465785148095
  H   -1.01762574257376      3.50446659203971     -0.70209349377698
  H   -3.50300062545947      3.51036197560038     -0.71084266587829
  H   -4.74990779375824      1.49950544152201      0.03166382646630
  C   0.59969228426755      1.49580434131523      0.04811007062439
  C   2.56246971823975      2.54042144540310     -0.33680600862364
  H   3.10287677515013      3.42311592070757     -0.66459717325707
  N   1.23361362422411      2.60454510235659     -0.36346454532122
  N   1.22954343338659      0.38581420940410      0.46260121205061
  N   3.29222023275770      1.49327145898165      0.05457379573223
  C   2.55861611576966      0.44746755117902      0.44237772241205
  H   3.09579393835584     -0.43632021400660      0.77252488541005
  C   -1.57781085262255      0.36253271513041      0.46474782793908
  H   -1.02501817933614     -0.50970888156956      0.79083303171858
