19
Coordinates from ORCA-job opt
  C   -2.96220245256509      2.70602688117851     -0.05782897130889
  C   -0.87455745661728      1.49768319131035      0.04364526473610
  C   -1.57953671716226      0.29245910137029      0.13831943128737
  C   -2.96984662995768      0.30176272835204      0.13438653992531
  C   -3.66571681572381      1.50599507876602      0.03669869585880
  H   -3.49984201253620      3.64438054627735     -0.13406938782951
  H   -1.02818025686899     -0.63651410980655      0.21394512264505
  H   -3.51343607556772     -0.63338292999918      0.20779153120401
  H   -4.74987659177330      1.50926198707646      0.03437840291650
  C   0.59969659413676      1.49332364387129      0.04776664149815
  C   2.56406756248741      2.60055928030866     -0.03672839898527
  H   3.10584996478081      3.53840187489886     -0.11121128663363
  N   1.23529884203988      2.67140573132675     -0.04585486869235
  N   1.22779387545598      0.31151201404063      0.14476609005543
  N   3.29216767699332      1.48536269215227      0.05515672929897
  C   2.55699829307572      0.37449924674728      0.14297760277783
  H   3.09280007666626     -0.56653825580481      0.22036904891272
  C   -1.57185677923510      2.70706380047845     -0.05478839591950
  H   -1.01462009762866      3.63273749745533     -0.12771979174710
