19
Coordinates from ORCA-job opt
  C   -2.96814552421113      0.36836927009247      0.45880545396572
  C   -0.87457343702248      1.49658749779937      0.04291189963933
  C   -1.57365672636708      2.63200055799878     -0.38225342310242
  C   -2.96400514898613      2.62847399938051     -0.38368359513521
  C   -3.66568950276051      1.49933987924040      0.03658395505868
  H   -3.51035477716122     -0.51184704037049      0.78527937127823
  H   -1.01754854004079      3.50303181311168     -0.70589471365741
  H   -3.50298005754375      3.50957998467767     -0.71310047019053
  H   -4.74986009229822      1.50094595885812      0.03554361471041
  C   0.59962969860731      1.49565059569216      0.04766339020495
  C   2.56242016913590      2.54068681646131     -0.33615460030668
  H   3.10300185046235      3.42335606433102     -0.66368050117180
  N   1.23351966195724      2.60444438987895     -0.36398527567124
  N   1.22942125728747      0.38606829715063      0.46347658711083
  N   3.29207453032728      1.49400577924297      0.05661157791967
  C   2.55854388685791      0.44816813454727      0.44440452729890
  H   3.09589222320414     -0.43506441205710      0.77571132191908
  C   -1.57781993664340      0.36217201293665      0.46385243834346
  H   -1.02486853480490     -0.50996759897238      0.78990644178603
