19
Coordinates from ORCA-job mp2_opt
  C   -2.76942520254609     -1.08620252108453      0.55263067167849
  C   -0.69610294043460      0.03130794687775      0.02937478119954
  C   -1.40861266449626      1.08984243099110     -0.53610142411002
  C   -2.80044682690282      1.06043545670798     -0.54977142576819
  C   -3.48222512005901     -0.02460523496748     -0.00203674811220
  H   -3.29738736392229     -1.93348224520013      0.97495456351695
  H   -0.87217501304262      1.93490275924735     -0.95422854403230
  H   -3.35226088938662      1.88239336282897     -0.99119366428426
  H   -4.56586209253563     -0.04399769397304     -0.00936536045342
  C   0.78231244140262      0.03051251010912     -0.00375048031740
  C   2.75836154165171      0.77912337379958      0.77751927099702
  H   3.31542465753314      1.43084693371652      1.44319562679923
  N   1.42747966582235      0.85042533349106      0.83790290172411
  N   1.38335615881585     -0.82876600146754     -0.83881563488433
  N   3.46604150711818     -0.02423215441385     -0.01909442287560
  C   2.71674060678300     -0.80421312045873     -0.80094450209006
  H   3.23884959203515     -1.48292927118871     -1.46797559932668
  C   -1.37754253754772     -1.06784583756616      0.55450351395447
  H   -0.81658652028832     -1.90010902744924      0.96591047638467
