19
Coordinates from ORCA-job mp2_opt
  C   -2.78601738010786     -1.20282069964034      0.08884388931590
  C   -0.69460909642021      0.00021856236966      0.00186295345252
  C   -1.39556063714267      1.20825574982084     -0.08866492266190
  C   -2.78594850843264      1.20284964018536     -0.09260660450632
  C   -3.48550678450794     -0.00001964516033     -0.00248674966395
  H   -3.32701774528209     -2.13953277041766      0.16056223374128
  H   -0.84060000572748      2.13584471227631     -0.15467243071658
  H   -3.32690887233978      2.13937716638232     -0.16698259310198
  H   -4.56967103392779     -0.00007005154368     -0.00351225796909
  C   0.77934028067084      0.00012972687407     -0.00114439222371
  C   2.74028455226751      1.11140031499281      0.10643633006151
  H   3.27933419667406      2.04919797437253      0.19775132092872
  N   1.41112813497558      1.17853306448533      0.11409332081097
  N   1.41067260310908     -1.17875916437402     -0.11347315823844
  N   3.47165922051774     -0.00047294792942     -0.00019632455386
  C   2.73987092298708     -1.11212417987438     -0.10598317168776
  H   3.27854160061782     -2.05023347775522     -0.19632202070388
  C   -1.39564790895196     -1.20812672408663      0.08724799304384
  H   -0.84076053897929     -2.13576125097754      0.15312958467271
