19
Coordinates from ORCA-job mp2_opt
  C   -2.80704896839711     -1.08933662113545     -0.45297381123116
  C   -0.69445770564484      0.01303307256392     -0.07571714115965
  C   -1.36415953321660      1.12166979271902      0.44710893044677
  C   -2.75426276726039      1.12297903983250      0.51272907660854
  C   -3.47740919923311      0.02183707575755      0.05680600964069
  H   -3.36810532042707     -1.94840833848246     -0.80244797711862
  H   -0.79219812139748      1.97741695028216      0.78880956031664
  H   -3.27350184485976      1.98100634169510      0.92406421519965
  H   -4.56038352963415      0.02790327957112      0.10203667705851
  C   0.78007055111317     -0.01856945102787     -0.06260040259411
  C   2.70655836998244     -0.96098447856122      0.62751435831658
  H   3.22261374798715     -1.75350043625146      1.16028809968665
  N   1.37433226106726     -1.01449764112842      0.61081989374392
  N   1.43272375300675      0.98964563537223     -0.65983574252373
  N   3.46205043195661     -0.01753089215934      0.06160856206647
  C   2.76124604837893      0.93041083044616     -0.56435407461369
  H   3.32365478291085      1.72751996153311     -1.04033690138073
  C   -1.41654737680117     -1.10492923649109     -0.49916846590745
  H   -0.88446357953147     -1.97532288453557     -0.86711086655529
