19
Coordinates from ORCA-job mp2_opt
  C   -2.79822411592449     -1.13441217920382     -0.34807549790157
  C   -0.69364167217948      0.00965133784710     -0.06197235336378
  C   -1.37254134028676      1.16126228652966      0.34591886561928
  C   -2.76246216237176      1.16007039196982      0.40355840197548
  C   -3.47758447295119      0.01638265295676      0.05050654100257
  H   -3.35330057071534     -2.02510203681216     -0.61929486139257
  H   -0.80443692917990      2.04712892233892      0.60608998630129
  H   -3.28914289931851      2.05036394037464      0.72763252948612
  H   -4.56091442220605      0.02062042391049      0.08910957336962
  C   0.77844592712554     -0.01139806838968     -0.05131260861448
  C   2.71521523346336     -1.03839947385530      0.47079086249193
  H   3.23881758843753     -1.90066217039084      0.87166635140333
  N   1.38381138307592     -1.09524959122147      0.45721270327913
  N   1.42366409297756      1.07896946019216     -0.49333892959319
  N   3.46304170480013     -0.01647379709195      0.04847498457856
  C   2.75224805293704      1.01277505409326     -0.41838771445721
  H   3.30745616473158      1.87606260660473     -0.77157308020433
  C   -1.40796037426851     -1.14733495275871     -0.38518425790565
  H   -0.86674018814667     -2.04321980709362     -0.66744049607451
