19
Coordinates from ORCA-job mp2_opt
  C   -2.80936647082158     -1.07567243669992      0.48465290791422
  C   -0.69491955503019      0.01247244030450      0.07668585764271
  C   -1.36326453545928      1.10637761611949     -0.47714681956305
  C   -2.75360069111736      1.10884081576956     -0.54127846423997
  C   -3.47829052395500      0.02185457523706     -0.05523454568460
  H   -3.37132501463938     -1.92438112054785      0.85724364801616
  H   -0.79127171606347      1.95184712355223     -0.84381466758586
  H   -3.27132550129048      1.95659127413123     -0.97520836462977
  H   -4.56124577416428      0.02844080407124     -0.10005642924844
  C   0.78084302970109     -0.02064915890053      0.06328061228333
  C   2.70597836967220     -0.92249136701217     -0.68246833317632
  H   3.22088232508143     -1.68266183683338     -1.26146595200778
  N   1.37350386850750     -0.97648662731811     -0.66691642587110
  N   1.43435368947750      0.95010161107786      0.71846416448227
  N   3.46250134780612     -0.01410063753066     -0.06302220171320
  C   2.76309213521997      0.89513875176751      0.61915823815647
  H   3.32656207706664      1.66180342193281      1.14158457053205
  C   -1.41865262926116     -1.09158435242240      0.53169453570090
  H   -0.88906043073027     -1.95268489669846      0.92452766899196
