19
Coordinates from ORCA-job opt
  C   -2.96810773929830      0.36871475042549      0.45954735412883
  C   -0.87454426775785      1.49679417504363      0.04349201245371
  C   -1.57357341161420      2.63199147174676     -0.38211222759627
  C   -2.96393135289050      2.62830989682335     -0.38407329039796
  C   -3.66571622553086      1.49916675044269      0.03602408538164
  H   -3.51032293273510     -0.51124177030635      0.78671928483956
  H   -1.01782410787641      3.50316057267705     -0.70599461119807
  H   -3.50288608629989      3.50913034399951     -0.71429296519433
  H   -4.74987865500287      1.50023236177288      0.03350607164339
  C   0.59975417848564      1.49568502342675      0.04781994724732
  C   2.56250192816693      2.54089317971702     -0.33547699053800
  H   3.10287907936655      3.42391681234787     -0.66240742989642
  N   1.23358982325226      2.60484041245661     -0.36286534433121
  N   1.22949933993332      0.38568290208271      0.46250839667087
  N   3.29216321612294      1.49378132096969      0.05604405241226
  C   2.55863536826335      0.44775823148739      0.44325187026464
  H   3.09576604627520     -0.43606857066710      0.77334717346250
  C   -1.57776986791769      0.36268960025678      0.46508142735977
  H   -1.02523533294249     -0.50943646470273      0.79188118328779
