19
Coordinates from ORCA-job opt
  C   -2.96770729110976      1.40772325740383      1.24414695309697
  C   -0.87458212428292      1.49688374309580      0.04436158447751
  C   -1.57407639616829      1.59112042453058     -1.16409937642029
  C   -2.96440017670167      1.59311224520689     -1.16066025826648
  C   -3.66574844718708      1.50185044958492      0.04089501341560
  H   -3.50964449059572      1.33645748493519      2.18042168184654
  H   -1.01834623094259      1.66178298525684     -2.09086132473783
  H   -3.50375229522463      1.66612371831826     -2.09829114241832
  H   -4.74991275221249      1.50422874408516      0.03959607788358
  C   0.59969750673807      1.49483230905610      0.04623080281188
  C   2.55899836179895      1.40520295480705      1.16199795700814
  H   3.09650677080313      1.33110078877755      2.10233194012930
  N   1.22993924584148      1.40181871561152      1.22722307499441
  N   1.23319857067717      1.58590416886470     -1.13314774387065
  N   3.29221765743485      1.49092961572478      0.04965011831985
  C   2.56208492145803      1.57867493564430     -1.06455117062367
  H   3.10218138210911      1.65126880171997     -2.00351893543275
  C   -1.57739234195790      1.40483913380335      1.25105912223529
  H   -1.02425887047774      1.33214752357318      2.17921562555091
