19
Coordinates from ORCA-job mp2_opt
  C   -2.80513925869029     -1.06013447819336      0.53285450295252
  C   -0.69606614766479      0.00959665782399      0.05371916148220
  C   -1.37205823106209      1.08405476122441     -0.52664740529973
  C   -2.76352976644453      1.08618352867328     -0.56976850562644
  C   -3.48150776856615      0.01725655101425     -0.03656654562770
  H   -3.36123240341576     -1.89488217854514      0.94383326835379
  H   -0.80747270446357      1.91641675911067     -0.93302410796570
  H   -3.28687857292895      1.92036970486197     -1.02280860580871
  H   -4.56491391794179      0.02291370072726     -0.06649626375545
  C   0.78238328908636     -0.01715022108144      0.04161585362246
  C   2.71418980158754     -0.80466578298201     -0.80826000088265
  H   3.23428339830412     -1.46897759700928     -1.49117080841379
  N   1.38093042524844     -0.85185925372359     -0.81975101023075
  N   1.42951638695917      0.83352705010328      0.85062311761763
  N   3.46543878494627     -0.01165983974230     -0.04150116997291
  C   2.75994858721706      0.78478904623688      0.76392841753527
  H   3.31865337607156      1.45623558514202      1.40829207841876
  C   -1.41349566427927     -1.07335030088967      0.56412575603648
  H   -0.88073461396334     -1.91809469275122      0.98741726756472
