19
Coordinates from ORCA-job mp2_opt
  C   -2.76875289093447     -1.11593861112427      0.48485324579476
  C   -0.69447475056910      0.03151121085649      0.03808802526676
  C   -1.40509864756004      1.12292843469715     -0.46642898421519
  C   -2.79627926517573      1.09368010498057     -0.48813773231363
  C   -3.47965946672903     -0.02196780685798     -0.00696060213852
  H   -3.29913156595132     -1.98597705898181      0.85461310120328
  H   -0.86383374130543      1.99043071304993     -0.82812490534823
  H   -3.34735469104515      1.93854003041876     -0.88495509220510
  H   -4.56337944897485     -0.04042842881004     -0.01823309006477
  C   0.77984775187123      0.02860722287774     -0.00700010950306
  C   2.75776074432636      0.92861983328456      0.58881042938120
  H   3.31645384625396      1.70726232532378      1.09851354011373
  N   1.42778659527797      1.00811781576933      0.64102911550667
  N   1.38041891370818     -0.98997153201216     -0.63968200211404
  N   3.46396535014095     -0.02586340628239     -0.02084431870711
  C   2.71310376736877     -0.95695771500911     -0.61276012833502
  H   3.23413178259637     -1.76286723391282     -1.12001604248926
  C   -1.37744455280685     -1.10109599414575      0.48690248240041
  H   -0.81461373049184     -1.95785790412199      0.84062506776712
