19
Coordinates from ORCA-job opt
  C   -2.96169646549463      1.91852563490872     -1.09440463219839
  C   -0.87458321850031      1.49654222304840      0.04342579415412
  C   -1.58010270274687      1.07685727911994      1.17687882233470
  C   -2.97041522159517      1.08102787747376      1.16752596515700
  C   -3.66568799039269      1.50143778542865      0.03447991579591
  H   -3.49894479690619      2.24541484930959     -1.97750678388842
  H   -1.02898017273282      0.75295008719800      2.05097551077633
  H   -3.51444498233035      0.75566852140424      2.04703401522397
  H   -4.74984871073018      1.50436382304719      0.03138935120008
  C   0.59964560728288      1.49499604911481      0.04852881033541
  C   2.55647806541037      1.10497369379839      1.10240815612775
  H   3.09195772625608      0.77687677541678      1.98797184309462
  N   1.22722674229544      1.08309432777919      1.16079066365088
  N   1.23576886013343      1.90545813171430     -1.05941807464707
  N   3.29212147777435      1.49196206429297      0.05776015135298
  C   2.56452324879385      1.88067197967193     -0.99188600406821
  H   3.10682255184275      2.20741120799778     -1.87379484280593
  C   -1.57135000608654      1.91793802231779     -1.09479941296621
  H   -1.01349101227337      2.23982966695755     -1.96536124862951
