19
Coordinates from ORCA-job mp2_opt
  C   -2.76725199738791     -1.09292731335684      0.54024804209861
  C   -0.69553787496339      0.03587766277567      0.03557942632355
  C   -1.40928721621617      1.09821276951433     -0.52194798946620
  C   -2.80086986765680      1.06579989577399     -0.53898192432578
  C   -3.48128265583175     -0.02643385642410     -0.00375055300749
  H   -3.29455750146507     -1.94602105459709      0.95155142455416
  H   -0.87292113616025      1.94876743094547     -0.92878454094308
  H   -3.35385206500502      1.89029950921545     -0.97415777619088
  H   -4.56489878121485     -0.04797941075505     -0.01313815317630
  C   0.78148679995982      0.03358637866967     -0.00533112387499
  C   2.76102853973856      0.84291622260735      0.70383313397260
  H   3.32097456795383      1.54804541424293      1.31000491970948
  N   1.43064579297296      0.92099007648185      0.76197333441738
  N   1.37931065376689     -0.89824059193360     -0.76153292746075
  N   3.46534510885946     -0.02795069381892     -0.02186294586901
  C   2.71259353693226     -0.87261802755249     -0.72976135411116
  H   3.23179448861975     -1.60820759127319     -1.33601403618127
  C   -1.37560740054645     -1.07276981097089      0.54305254097245
  H   -0.81259499235586     -1.90975900954455      0.94163250255867
