19
Coordinates from ORCA-job mp2_opt
  C   -2.76699596581457     -1.09341227412591     -0.54041992555317
  C   -0.69554350655899      0.03587225615142     -0.03571594643451
  C   -1.40954683937728      1.09812789404329      0.52162108141110
  C   -2.80112826373752      1.06543805825565      0.53853573549422
  C   -3.48128303962079     -0.02699033413945      0.00338373957744
  H   -3.29409343374155     -1.94666598743513     -0.95166018351257
  H   -0.87339346436147      1.94884318976912      0.92840336363876
  H   -3.35427025988346      1.88990403172663      0.97357428455118
  H   -4.56489623135395     -0.04874826485481      0.01268533843692
  C   0.78147640844330      0.03379281036095      0.00525557950544
  C   2.76090927689213      0.84330125461413     -0.70401259698500
  H   3.32077954186021      1.54843285220206     -1.31025329708702
  N   1.43052154456464      0.92121500712222     -0.76214271317174
  N   1.37941716475123     -0.89786010543342      0.76156779331243
  N   3.46534953411945     -0.02741663616726      0.02175964635422
  C   2.71270468375470     -0.87207797480869      0.72977331651142
  H   3.23199233321490     -1.60753223070937      1.33611729182538
  C   -1.37535569635474     -1.07298082452948     -0.54310384074938
  H   -0.81212778679625     -1.90989872204192     -0.94152966712512
