19
Coordinates from ORCA-job opt
  C   -2.96300141401449      0.64169415002156     -0.81462370103095
  C   -0.87462498022872      1.49619093362662      0.04395398395927
  C   -1.57881835980141      2.35347258034684      0.89710767519522
  C   -2.96912762154440      2.34947942842801      0.88875045122675
  C   -3.66563736743835      1.49566758449409      0.03446195844598
  H   -3.50129993261443     -0.02388950321273     -1.47989862582067
  H   -1.02644335815624      3.01209550683216      1.55573586382505
  H   -3.51218443864405      3.01468749662703      1.55052433755187
  H   -4.74980090715325      1.49595951498330      0.03025181275572
  C   0.59959094055632      1.49699125155190      0.04849496330974
  C   2.56332200992476      0.70688854222266     -0.73353853447742
  H   3.10460930936440      0.03932579671633     -1.39684301110357
  N   1.23447455106751      0.65859734658470     -0.78500418238676
  N   1.22844367510964      2.33605263772313      0.88587671516712
  N   3.29204600071037      1.49837077997710      0.05683174224802
  C   2.55762384554327      2.28920119778505      0.84257978474521
  H   3.09413112911532      2.95713306286502      1.50938600452293
  C   -1.57265611140915      0.63827958485135     -0.81359398738133
  H   -1.01564697038706     -0.02019889242414     -1.46845225075219
