19
Coordinates from ORCA-job mp2_opt
  C   -2.78792753119188     -1.19060850889961      0.16326708306281
  C   -0.69427021126706      0.00141247709744      0.01758667323429
  C   -1.39051348229000      1.20099809960454     -0.16695531486020
  C   -2.78082328517219      1.19723451114886     -0.18787847987991
  C   -3.48315605463654      0.00426695199678     -0.02018868199993
  H   -3.33212377990461     -2.11883752504291      0.29534145097780
  H   -0.83218715389678      2.12099109241292     -0.29009082869041
  H   -3.31923521061022      2.12610827146178     -0.33790421350398
  H   -4.56723664545894      0.00556147432724     -0.03323991778340
  C   0.77858873064615     -0.00237453517745      0.01521220556015
  C   2.73501537980177     -1.10152141199282     -0.21424242283498
  H   3.27143558123020     -2.02766788387065     -0.39559825192668
  N   1.40538275011687     -1.16628251517909     -0.21571214316397
  N   1.41217999394600      1.16191439522687      0.22534559504469
  N   3.46911086623550     -0.00403625642731     -0.01687624070155
  C   2.74125836626521      1.09490189857736      0.19545727730261
  H   3.28311284464965      2.02059905680924      0.36227703109930
  C   -1.39754262945239     -1.19805081727094      0.17410510205926
  H   -0.84474852901075     -2.12028177480224      0.30521207700409
