19
Coordinates from ORCA-job opt
  C   -2.96159692295238      1.91543951145915     -1.09581568766506
  C   -0.87461828164849      1.49600701831054      0.04318846100970
  C   -1.58021732898431      1.07739704997305      1.17702666806757
  C   -2.97051802141148      1.08093896797610      1.16732374582164
  C   -3.66557929536358      1.49976097088602      0.03357398218961
  H   -3.49882347272717      2.24078645832840     -1.97949040773399
  H   -1.02885142850093      0.75494268994940      2.05151022074900
  H   -3.51468173749160      0.75662153253177      2.04712353294605
  H   -4.74974419858769      1.50261019970725      0.03032164585641
  C   0.59955888872364      1.49537371960454      0.04875247357465
  C   2.55632209918917      1.10981629208536      1.10450270596499
  H   3.09166473152081      0.78458842398094      1.99120135973918
  N   1.22705719019566      1.08691683571883      1.16238952493079
  N   1.23582075249892      1.90339594699865     -1.06001448028209
  N   3.29196357770932      1.49486014620988      0.05918892549774
  C   2.56460881396735      1.87998606903926     -0.99184970982093
  H   3.10693365957945      2.20486040027696     -1.87442222584688
  C   -1.57125188548760      1.91544238944906     -1.09588976858376
  H   -1.01304914022909      2.23625737751480     -1.96662196641462
