19
Coordinates from ORCA-job opt
  C   -2.96810686450085      0.36866437328426      0.45940529565050
  C   -0.87454445759174      1.49673693675866      0.04331703247534
  C   -1.57358988930263      2.63197204759373     -0.38221239955479
  C   -2.96394094429697      2.62832887789542     -0.38400750641000
  C   -3.66572735464218      1.49923602563672      0.03622266842800
  H   -3.51033871646977     -0.51133503430272      0.78645468377413
  H   -1.01777789181093      3.50312361591650     -0.70604006511001
  H   -3.50291535129522      3.50919674607690     -0.71408871197630
  H   -4.74989241891915      1.50048283924101      0.03420390321947
  C   0.59971515696536      1.49569129061779      0.04782475610147
  C   2.56249708385710      2.54073330327775     -0.33591923671591
  H   3.10290080236256      3.42363579449866     -0.66313301554582
  N   1.23360569547810      2.60459720489034     -0.36342800677047
  N   1.22950774534631      0.38592211193523      0.46305656225920
  N   3.29217369194087      1.49380989171632      0.05612375916614
  C   2.55862162888034      0.44791671102144      0.44369209619140
  H   3.09577122545159     -0.43567311023531      0.77439156960151
  C   -1.57777481344997      0.36256418406824      0.46477140146410
  H   -1.02518332800280     -0.50960480989094      0.79136421375205
