19
Coordinates from ORCA-job mp2_opt
  C   -2.79095817276930     -1.17236996541285     -0.23861974560719
  C   -0.69380365082677      0.00406291802974     -0.03708603013572
  C   -1.38388176937734      1.18881643068940      0.23923593483607
  C   -2.77405976446767      1.18592191902238      0.27732157517776
  C   -3.48063375950245      0.00854170731843      0.03445821809366
  H   -3.33910606350644     -2.08817634875571     -0.42823599976255
  H   -0.82183573175814      2.09782037837116      0.41766125079248
  H   -3.30855608416076      2.10223821188985      0.50054225465208
  H   -4.56445720034407      0.01083129178336      0.05961004493649
  C   0.77817554685810     -0.00550113345642     -0.03167374399087
  C   2.72787866662820     -1.08273244954764      0.31818984298033
  H   3.26011717958227     -1.98963544366996      0.58765132796348
  N   1.39761298685320     -1.14528081785839      0.31148008802733
  N   1.41550439489916      1.13582778738216     -0.33518703904516
  N   3.46644836463105     -0.00784743972852      0.03298407410779
  C   2.74431432597812      1.06945440924101     -0.28407107333503
  H   3.29059136110927      1.97599627967789     -0.52507301079962
  C   -1.40062765302703     -1.18186935379815     -0.26117370207715
  H   -0.85146397679940     -2.09565938117774     -0.45456726681416
