19
Coordinates from ORCA-job opt
  C   -2.96815522277264      0.36849145153988      0.45907193487561
  C   -0.87457254137237      1.49662712927434      0.04304291862440
  C   -1.57367500978602      2.63194962875833     -0.38230533552309
  C   -2.96400166052137      2.62836595422588     -0.38391075332624
  C   -3.66574878499554      1.49928091276455      0.03641048050533
  H   -3.51040916073190     -0.51159098929892      0.78586380058289
  H   -1.01751606709885      3.50295023125399     -0.70597215781466
  H   -3.50300140111437      3.50932845764933     -0.71370073481177
  H   -4.74991708705856      1.50076315956632      0.03501171066637
  C   0.59965504630935      1.49568887862303      0.04780532196672
  C   2.56243280666240      2.54074543301424     -0.33596758825990
  H   3.10294962515141      3.42342944532847     -0.66358373940473
  N   1.23356307824706      2.60448563681592     -0.36369715828059
  N   1.22948522168632      0.38606848388773      0.46336734976584
  N   3.29217658218749      1.49394985985336      0.05642693153851
  C   2.55856774866938      0.44811904629787      0.44421323260615
  H   3.09586707577180     -0.43527003763362      0.77520637973571
  C   -1.57785655146841      0.36233317198937      0.46424209962359
  H   -1.02484369776519     -0.50971685391010      0.79047530692986
