19
Coordinates from ORCA-job mp2_opt
  C   -2.80877776982221     -1.06489672838468     -0.51320817496266
  C   -0.69546832689011      0.01201805391323     -0.07022176770033
  C   -1.36597591176302      1.09300001632876      0.50513628031201
  C   -2.75678569329457      1.09529894866859      0.56224255517302
  C   -3.47973948173630      0.01991655618567      0.04890337257364
  H   -3.36908343263930     -1.90487719975651     -0.90746354400007
  H   -0.79648302729125      1.93002949740395      0.89458582141813
  H   -3.27589002423348      1.93402586077385      1.01177635761899
  H   -4.56284208363174      0.02591170758620      0.08928275616222
  C   0.78163764449744     -0.01986796752157     -0.05649097691185
  C   2.70792677657394     -0.87334653445686      0.74109486491134
  H   3.22364465506445     -1.59329794057913      1.36868971874697
  N   1.37502093696099     -0.92479960638965      0.73506418594515
  N   1.43411181470421      0.90148312188518     -0.77978932872440
  N   3.46387875817047     -0.01278619425151      0.05609257542000
  C   2.76349979796680      0.84925334975133     -0.68377162713269
  H   3.32616741517410      1.57623925776269     -1.26093404831854
  C   -1.41766988587697     -1.07950987391757     -0.55593459865364
  H   -0.88788416193343     -1.93110332500199     -0.96893742187730
