19
Coordinates from ORCA-job opt
  C   -2.96127003687911      2.70798353468298     -0.05799798406346
  C   -0.87465059618353      1.49785614179362      0.04274057433850
  C   -1.58045924114899      0.29292466952940      0.13613977593939
  C   -2.97072532923584      0.30341740381600      0.13248984026837
  C   -3.66550777635176      1.50839686449513      0.03637691179253
  H   -3.49841244482564      3.64664279001312     -0.13409512695936
  H   -1.02908296167950     -0.63610854853655      0.21099317059705
  H   -3.51536107110417     -0.63117376805545      0.20535470894431
  H   -4.74968701529906      1.51252922818761      0.03584947175875
  C   0.59945715728525      1.49258461287238      0.04794154053559
  C   2.56487572946979      2.59842301721584     -0.03349021260947
  H   3.10713002166715      3.53614572662008     -0.10605109706337
  N   1.23604466369334      2.67022128016264     -0.04332623654263
  N   1.22678036827909      0.31003951380438      0.14323646075174
  N   3.29190748751589      1.48264380626188      0.05717281464780
  C   2.55588691439126      0.37204499861436      0.14255967681922
  H   3.09128849491338     -0.56932052002079      0.21878974739735
  C   -1.57094525580280      2.70793923215319     -0.05521318914147
  H   -1.01226810870469      3.63280901639014     -0.12746984741084
