19
Coordinates from ORCA-job opt
  C   -2.96461214537637      0.64571216813829     -0.81403657983563
  C   -0.87459407505847      1.49640160709167      0.04446890652903
  C   -1.57722990760858      2.35448576309504      0.89808408292358
  C   -2.96755062104603      2.35301001278181      0.88981086481806
  C   -3.66566396253308      1.50097250806425      0.03506698825255
  H   -3.50404940415930     -0.01897745200785     -1.47928108786456
  H   -1.02370963736104      3.01190830307287      1.55695372399052
  H   -3.50928762478245      3.01910698639222      1.55177141879769
  H   -4.74982331049714      1.50382499446500      0.03034260783952
  C   0.59960583111954      1.49503983319281      0.04835360093093
  C   2.56181348770999      0.70269757858170     -0.73516485846589
  H   3.10192755179075      0.03516368894868     -1.39945570331802
  N   1.23288141454446      0.65632288210932     -0.78604801748731
  N   1.23001241144656      2.33265355411214      0.88602780545263
  N   3.29203912060409      1.49270303404368      0.05531639115581
  C   2.55911541796784      2.28389154217803      0.84209626170440
  H   3.09691931432221      2.95075001159932      1.50893482588166
  C   -1.57427743994086      0.63982643720828     -0.81308217212492
  H   -1.01851742114211     -0.01949345306727     -1.46815805918005
