19
Coordinates from ORCA-job mp2_opt
  C   -2.80118081727307     -1.07270539209952     -0.51996985635320
  C   -0.69660843220742      0.00463352013515     -0.03714190724637
  C   -1.37861790003102      1.09020489866625      0.51443489320021
  C   -2.77057184971388      1.09284887139724      0.54403626619131
  C   -3.48327199039422      0.01387994035161      0.02433673541927
  H   -3.35298358168096     -1.91461166029780     -0.92204830426657
  H   -0.81915223345019      1.93001634940679      0.91250599603672
  H   -3.29826789747393      1.93596903891473      0.97495159857221
  H   -4.56690061076784      0.01921360172632      0.04464105196167
  C   0.78331895366931     -0.01450787482563     -0.02755894481588
  C   2.72208313599549     -0.69915401868142      0.89298250848650
  H   3.24770169020561     -1.27884567512954      1.64518576700799
  N   1.38886615256396     -0.74246911423788      0.92113604970566
  N   1.42383650592619      0.72727795104445     -0.94195006405334
  N   3.46686265716596     -0.00559875529964      0.02972658024828
  C   2.75509453973325      0.68726641893991     -0.86139628128559
  H   3.30852051786189      1.27370690420137     -1.58799347477824
  C   -1.40911225812830     -1.08455074325153     -0.54069532698742
  H   -0.87330858200085     -1.93432026096086     -0.94994028704320
