19
Coordinates from ORCA-job opt
  C   -2.96475476175949      0.64604383695492     -0.81389436450600
  C   -0.87457726988584      1.49672341923339      0.04419976252668
  C   -1.57710548738196      2.35499508613035      0.89769849881492
  C   -2.96740420474174      2.35339687260492      0.88981253439641
  C   -3.66574429879026      1.50099866570089      0.03558530647932
  H   -3.50435561027639     -0.01843413248601     -1.47923613836944
  H   -1.02350260026081      3.01261194081999      1.55632393333644
  H   -3.50906591035720      3.01935289147017      1.55199370068779
  H   -4.74990654228563      1.50314490616211      0.03173450622885
  C   0.59965649244164      1.49501937003976      0.04818976611294
  C   2.56171611263570      0.70216066866283     -0.73512489462336
  H   3.10166864789390      0.03433338048183     -1.39926562119621
  N   1.23282155744529      0.65608980997645     -0.78604441971405
  N   1.23022812992989      2.33255892047084      0.88574179531331
  N   3.29217998294661      1.49206705915158      0.05531679546414
  C   2.55928806727467      2.28354493507644      0.84189438972521
  H   3.09715444913955      2.95024708402462      1.50885194544815
  C   -1.57443618210948      0.64026051196472     -0.81329231192983
  H   -1.01886057185844     -0.01911622643980     -1.46848418419529
