19
Coordinates from ORCA-job mp2_opt
  C   -2.78674554427588     -1.20493637772902      0.04314059834941
  C   -0.69466395150246      0.00001477521139      0.00025033044797
  C   -1.39598792832648      1.21049069484483     -0.04548310539618
  C   -2.78636458989332      1.20537124318690     -0.04862622322440
  C   -3.48640098801297      0.00031108774165     -0.00357885763710
  H   -3.32768104247838     -2.14373933923181      0.07923548234730
  H   -0.84130052091593      2.13992464132022     -0.07834888907296
  H   -3.32701519990236      2.14427262828463     -0.08647022437156
  H   -4.57056323838889      0.00042037949885     -0.00490289360364
  C   0.77973929454452     -0.00014707037620      0.00067464067372
  C   2.74083268522425     -1.11556494470462     -0.05538782217644
  H   3.27939095592394     -2.05689745853554     -0.10232214951966
  N   1.41174271279752     -1.18255221861140     -0.05791818927487
  N   1.41196299094553      1.18221770599364      0.05748853904703
  N   3.47281291981043     -0.00028028273360     -0.00183393666800
  C   2.74105055123354      1.11508873521003      0.05275680869578
  H   3.27975807185902      2.05637679200498      0.09887066997273
  C   -1.39636742830482     -1.21033562211475      0.04332493082157
  H   -0.84196575033727     -2.13990436926018      0.07720229058930
