19
Coordinates from ORCA-job opt
  C   -2.96166925944951      1.91903600398112     -1.09415539195176
  C   -0.87454922213150      1.49689236432453      0.04354913005513
  C   -1.58003976236540      1.07697027107542      1.17686097994676
  C   -2.97036400046127      1.08078086410912      1.16740677614228
  C   -3.66571661307873      1.50101828663128      0.03434733981068
  H   -3.49887040193881      2.24642108193125     -1.97710399504063
  H   -1.02928145096898      0.75284380571553      2.05110298946550
  H   -3.51434121957502      0.75490701072127      2.04675835787541
  H   -4.74987540751765      1.50280570655756      0.03084414601764
  C   0.59977173576988      1.49488971306172      0.04847556302640
  C   2.55655967314239      1.10579978505243      1.10266691881559
  H   3.09188245494280      0.77866651682586      1.98869269004258
  N   1.22729298276300      1.08417422893209      1.16120720856702
  N   1.23583157452433      1.90431455490136     -1.05987829524534
  N   3.29216609148188      1.49171330975497      0.05765337379195
  C   2.56460875346389      1.87960496978420     -0.99225692779654
  H   3.10673650035072      2.20516033717611     -1.87471916963319
  C   -1.57130891456641      1.91877236097081     -1.09442845632208
  H   -1.01383451438561      2.24123082849338     -1.96502423756738
