19
Coordinates from ORCA-job opt
  C   -2.96812824712438      0.36847938594668      0.45929396786579
  C   -0.87459428360578      1.49733491982896      0.04497118299711
  C   -1.57370290908336      2.63354908370494     -0.37804379540315
  C   -2.96404247402502      2.62973960420018     -0.38014567402338
  C   -3.66566947261993      1.49938170657946      0.03690579551301
  H   -3.51031131829382     -0.51191185147159      0.78533700697185
  H   -1.01748728744014      3.50509321241638     -0.70012122078160
  H   -3.50304078086258      3.51110961327769     -0.70881516865195
  H   -4.74983304853766      1.49963250836752      0.03228962009195
  C   0.59960826722661      1.49570084458150      0.04773483352495
  C   2.56236973315259      2.54019149356023     -0.33771297823307
  H   3.10291790040324      3.42306250415931     -0.66475256675439
  N   1.23346445764742      2.60471042070114     -0.36341161263333
  N   1.22943620148416      0.38525675836708      0.46117010396502
  N   3.29204428529333      1.49256611967266      0.05247002546078
  C   2.55856853500688      0.44662449087851      0.44003604546529
  H   3.09593703240211     -0.43734257349456      0.76934459081853
  C   -1.57780663753389      0.36256451240479      0.46502874815271
  H   -1.02472695348977     -0.50974275368090      0.79042009565390
