19
Coordinates from ORCA-job opt
  C   -2.96800538439831      0.36930997792516      0.46065785168823
  C   -0.87452596572101      1.49691670516966      0.04381446164434
  C   -1.57353481371276      2.63173028037521     -0.38289438789953
  C   -2.96382630367498      2.62774365803950     -0.38511257495729
  C   -3.66580890222355      1.49903638211220      0.03567964850298
  H   -3.51035696629705     -0.51028996982738      0.78877774456706
  H   -1.01804464282532      3.50278405800052     -0.70755669068642
  H   -3.50292490410379      3.50819684142340     -0.71629082168241
  H   -4.74997285216436      1.49979617388126      0.03234487024281
  C   0.59974536692444      1.49572243104025      0.04789897554859
  C   2.56262166025054      2.54166935104872     -0.33309822763192
  H   3.10273615828095      3.42550466537097     -0.65842257247544
  N   1.23382539525474      2.60576479789636     -0.36000365414010
  N   1.22974238652824      0.38477930641569      0.45967310494175
  N   3.29214509516131      1.49372832222111      0.05591472987922
  C   2.55876625996890      0.44692064543928      0.44071377241341
  H   3.09563171298739     -0.43782444442803      0.76893038173413
  C   -1.57772897829327      0.36321489310227      0.46655413347169
  H   -1.02548432194213     -0.50870207520617      0.79441925483889
