19
Coordinates from ORCA-job mp2_opt
  C   -2.77083458632543     -1.12808979430303     -0.44986532077485
  C   -0.69410479710388      0.02704247657319     -0.03646086565259
  C   -1.40226092522159      1.13581306044612      0.43354743690042
  C   -2.79330705848945      1.11032776862934      0.45577075658154
  C   -3.47927122019102     -0.01780318259642      0.00812426522691
  H   -3.30345765835599     -2.00726415390708     -0.79389385196499
  H   -0.85785768443496      2.01212374075447      0.76795267128929
  H   -3.34271769599229      1.96801543441952      0.82653050068755
  H   -4.56307467714196     -0.03318534101926      0.01915217823676
  C   0.77911470411585      0.02420893766168      0.00768323441056
  C   2.75438428954882      0.96145089569941     -0.53802560455418
  H   3.31053599310087      1.76883348994292     -1.00393548679185
  N   1.42447169115181      1.03938626707013     -0.58610047940980
  N   1.38335430819849     -1.02517297790082      0.58422687310314
  N   3.46391524008808     -0.02299631519844      0.01799634306133
  C   2.71567201863978     -0.98709232280192      0.55832333847887
  H   3.23920522291791     -1.81798165935200      1.02074137668210
  C   -1.37967728471461     -1.11727840586086     -0.45113018335496
  H   -0.81780387979042     -1.98509791825695     -0.77798618215525
