19
Coordinates from ORCA-job mp2_opt
  C   -2.78703681978552     -1.19711667081898      0.12482770069751
  C   -0.69445861748694      0.00074835767959      0.00894128704649
  C   -1.39300952382926      1.20547186052911     -0.12916622374102
  C   -2.78335225041370      1.20104924621498     -0.14254516445550
  C   -3.48430564735739      0.00251786433700     -0.01353490064272
  H   -3.32965725919344     -2.13003876503494      0.22700656125816
  H   -0.83628964265397      2.12964485038366     -0.22376138546316
  H   -3.32306958829517      2.13442309371853     -0.25542284916922
  H   -4.56844289135673      0.00333460403278     -0.02126168396951
  C   0.77893634625287     -0.00120737812049      0.00794424958138
  C   2.73750940530953     -1.10806316039950     -0.16226532617401
  H   3.27519048302691     -2.04103045837866     -0.29959103838063
  N   1.40811101561535     -1.17373847121728     -0.16620008285636
  N   1.41155035030154      1.17124273306470      0.17005372030200
  N   3.47035348256821     -0.00256799546422     -0.00984016322128
  C   2.74068062010336      1.10396499475725      0.15047473564019
  H   3.28109473573210      2.03651457510909      0.27962195022109
  C   -1.39667552294421     -1.20362322566678      0.13036753233753
  H   -0.84277567559355     -2.12898905472585      0.22980008098907
