19
Coordinates from ORCA-job opt
  C   -2.96468008205274      0.64479430237604     -0.81216873817361
  C   -0.87452721420173      1.49699663956520      0.04394964507427
  C   -1.57687404195741      2.35685462192696      0.89591659608693
  C   -2.96715266770407      2.35502185673907      0.88812669861281
  C   -3.66580694050697      1.50089656856688      0.03596452856084
  H   -3.50443600201681     -0.02094527181144     -1.47621441918942
  H   -1.02395826561495      3.01593803114958      1.55364118634986
  H   -3.50884072290832      3.02222556190518      1.54912243539025
  H   -4.74997028799830      1.50248183708103      0.03280082230676
  C   0.59973974051754      1.49502251136423      0.04809011870395
  C   2.56184503252806      0.70422702746436     -0.73731086590208
  H   3.10131824709115      0.03770835358814     -1.40322591440578
  N   1.23300645877067      0.65870721095052     -0.78869713237935
  N   1.23054960753492      2.32985070588977      0.88818932883937
  N   3.29214412982604      1.49163465416620      0.05540131431846
  C   2.55953960541205      2.28099634312082      0.84401379081792
  H   3.09704591879754      2.94603525019024      1.51299181432197
  C   -1.57438871108346      0.63907972641081     -0.81200760399882
  H   -1.01955480443321     -0.02152593064361     -1.46658160533434
