19
Coordinates from ORCA-job mp2_opt
  C   -2.78328360607245     -1.18796437885493     -0.21387602867290
  C   -0.69402884308012      0.00312854877285     -0.01441213659644
  C   -1.39386074694688      1.19353207699195      0.21005688794056
  C   -2.78436630329445      1.18619781425455      0.22224090453789
  C   -3.48236210873164     -0.00166793716970      0.00699711471925
  H   -3.32449451800784     -2.11200807687885     -0.38242559522828
  H   -0.83850093568999      2.11016959760697      0.36840305965492
  H   -3.32615195802164      2.10750126760960      0.40345364147965
  H   -4.56649082151186     -0.00316560992108      0.01235585372184
  C   0.77823692370187      0.00254915350617      0.00320595951607
  C   2.73993458993698      1.08597595926918     -0.25150188358594
  H   3.28139734933664      2.00150866712164     -0.46822738481095
  N   1.41051917686334      1.15326335366626     -0.27474190267122
  N   1.40497252686442     -1.15342417648187      0.27071615673885
  N   3.46815442391773     -0.00308067882331      0.00564883984250
  C   2.73479956391826     -1.09030115167818      0.25557603161734
  H   3.27190608323560     -2.00916175867532      0.46904490990921
  C   -1.39274231707408     -1.19239633867085     -0.21326744149802
  H   -0.83681947934389     -2.10886733164509     -0.37001298661433
