19
Coordinates from ORCA-job opt
  C   -2.96477707604146      0.64644396773535     -0.81405052271684
  C   -0.87455282827683      1.49713631920204      0.04380774371235
  C   -1.57692602565103      2.35513280631372      0.89760350208384
  C   -2.96726463595254      2.35328573885883      0.89009289809727
  C   -3.66571986231490      1.50082051231840      0.03604232582257
  H   -3.50440376993035     -0.01784610541717     -1.47954812491822
  H   -1.02375720629885      3.01284507741375      1.55647546672631
  H   -3.50883103150698      3.01897614070750      1.55260902704732
  H   -4.74988063356229      1.50232578100170      0.03295361780369
  C   0.59977056178616      1.49529532592858      0.04780895886637
  C   2.56173524234265      0.70137425959965     -0.73456977650616
  H   3.10143416558189      0.03283667545355     -1.39820453931777
  N   1.23278255596753      0.65555464431106     -0.78573032054173
  N   1.23034603908097      2.33313681338540      0.88508568534326
  N   3.29217070437358      1.49155091359097      0.05549130363234
  C   2.55944019995919      2.28357707675327      0.84155589066935
  H   3.09719508387233      2.95089756916238      1.50798793556825
  C   -1.57442743211834      0.64092381565929     -0.81382160243380
  H   -1.01933705131072     -0.01826833197825     -1.46959046893840
