19
Coordinates from ORCA-job opt
  C   -2.96655704544530      0.77319125556135      1.00724611191982
  C   -0.87612911404438      1.49700630590034      0.04462601730684
  C   -1.57144606122568      2.22521501772617     -0.92155324169874
  C   -2.96380298398597      2.22534189354800     -0.92056593816505
  C   -3.66200608105093      1.50002770168944      0.04291930297123
  H   -3.50820011734368      0.20846257478119      1.75738836820861
  H   -1.02160558640546      2.78761053958436     -1.66863238681275
  H   -3.50331138258956      2.79123359822106     -1.67136960866882
  H   -4.74587251453428      1.50122033219000      0.04226515657295
  C   0.60438841672480      1.49543422628552      0.04551889160839
  C   2.56041469957274      2.38634530359057      0.71985645135607
  H   3.10041511506558      3.13784782640122      1.28707256465140
  N   1.22763125675973      2.44242099888481      0.76022944662734
  N   1.22647463667737      0.54709531329313     -0.66841310157794
  N   3.28759108244778      1.49255768811036      0.04715911284545
  C   2.55932237074652      0.60031806992865     -0.62641617328051
  H   3.09840946374617     -0.15233830435815     -1.19297075666964
  C   -1.57420351350593      0.77029987435569      1.00994105530485
  H   -1.02651064160951      0.20671078430632      1.75769772750050
