19
Coordinates from ORCA-job mp2_opt
  C   -2.76885316645976     -1.11572343380581     -0.48472892129392
  C   -0.69446474759015      0.03156038619886     -0.03805041287108
  C   -1.40498198163294      1.12303310934743      0.46650022974214
  C   -2.79616594996453      1.09389034480555      0.48826958779150
  C   -3.47965533177151     -0.02169997971855      0.00711575762544
  H   -3.29929836146023     -1.98572768525325     -0.85447422433948
  H   -0.86365667495367      1.99050247273152      0.82818292372846
  H   -3.34715057049049      1.93879481981265      0.88511864448014
  H   -4.56337626782013     -0.04007558440538      0.01843019120902
  C   0.77985909188016      0.02856827400962      0.00698016511442
  C   2.75779714778736      0.92848691045198     -0.58888451005182
  H   3.31652412442555      1.70709605444569     -1.09860155362522
  N   1.42782782088045      1.00804909345155     -0.64106792941165
  N   1.38039693530310     -0.99004648040346      0.63963485121472
  N   3.46397503028692     -0.02602813979564      0.02075801587049
  C   2.71308565613849     -0.95709088120250      0.61268332412912
  H   3.23408213459296     -1.76303357343133      1.11991919848911
  C   -1.37754373627583     -1.10099200516176     -0.48683316248117
  H   -0.81478215287575     -1.95779170207718     -0.84057517532020
