19
Coordinates from ORCA-job mp2_opt
  C   -2.77363183706500     -1.09381439891776      0.53187280652364
  C   -0.69664105120059      0.02369648798608      0.02185525772147
  C   -1.40646983348330      1.09668098182668     -0.51887255188009
  C   -2.79858105227053      1.07308805794416     -0.52956185100559
  C   -3.48354269464259     -0.01978402482624     -0.00183608500295
  H   -3.30379403611562     -1.94652215247015      0.94029313745733
  H   -0.86868387705478      1.94739719505631     -0.92358861787031
  H   -3.34807633771375      1.90646034162747     -0.95207307557085
  H   -4.56724933294433     -0.03518360144341     -0.00776987295744
  C   0.78329494248544      0.02451779338291     -0.00131067162005
  C   2.75468223157377      0.68098216071051      0.86950517016850
  H   3.30765152699176      1.25136694984437      1.60910742258535
  N   1.42329065565694      0.74162084814405      0.93289974075977
  N   1.38955088478896     -0.72278269309486     -0.93440350799321
  N   3.46703851490699     -0.01965698029320     -0.01502057273732
  C   2.72280949251388     -0.70030783225232     -0.88894653433583
  H   3.24900167437444     -1.29167353749427     -1.63160183133252
  C   -1.38151182785327     -1.07938816122061      0.53372601335476
  H   -0.82403204294843     -1.91924843450972      0.93439562373534
