19
Coordinates from ORCA-job mp2_opt
  C   -2.77813461031339     -1.16171585934580      0.33556141298671
  C   -0.69352451037103      0.01219243365677      0.02777938230937
  C   -1.39508883087629      1.16867289491795     -0.32558425064285
  C   -2.78575599400717      1.15490602723951     -0.34555444398793
  C   -3.47973436679544     -0.00691331252733     -0.00951708835545
  H   -3.31694320490339     -2.06579927871559      0.59513946826317
  H   -0.84255487536868      2.06787331064544     -0.57296960602442
  H   -3.32985228221694      2.04918318216273     -0.62708829684946
  H   -4.56372999152803     -0.01323134326055     -0.01867153556532
  C   0.77791685567919      0.01047772237383     -0.00607984497424
  C   2.74422365283907      1.03737816328234      0.39404709386503
  H   3.29188282810567      1.91030871627537      0.73517182807250
  N   1.41443375964783      1.10874965717808      0.42954028192998
  N   1.39468890763884     -1.10487550410636     -0.42513807190729
  N   3.46484494015687     -0.01090594054644     -0.01139968758378
  C   2.72576387151468     -1.05064374729668     -0.40500674336501
  H   3.25782639898743     -1.93492669809966     -0.74160578568581
  C   -1.38737020175503     -1.16160495826036      0.33567401994919
  H   -0.82935434643419     -2.05838546557326      0.57864286756559
