19
Coordinates from ORCA-job opt
  C   -2.96469399186445      0.64562375744646     -0.81371443278392
  C   -0.87455703491650      1.49769310907541      0.04321176991498
  C   -1.57720536011971      2.35654206350810      0.89605764718697
  C   -2.96750355278218      2.35417794730458      0.88879726291619
  C   -3.66575599467585      1.50013449844873      0.03614999114740
  H   -3.50414969806221     -0.01932153591761     -1.47869637715807
  H   -1.02358311257384      3.01483160570577      1.55399195856376
  H   -3.50916408005168      3.02036066594160      1.55074113823925
  H   -4.74992300967107      1.50021625721921      0.03427444157625
  C   0.59962943081746      1.49545464106648      0.04785267429710
  C   2.56175808618610      0.70156101180065     -0.73425428622285
  H   3.10183287831557      0.03343418702722     -1.39798643743461
  N   1.23286546678960      0.65613911142218     -0.78595772382264
  N   1.23012098537863      2.33274613578801      0.88574494740778
  N   3.29212970935497      1.49129117072720      0.05644522893411
  C   2.55919185875191      2.28314956578441      0.84259039158100
  H   3.09704073803339      2.94982682214196      1.50957982478490
  C   -1.57437544177957      0.64068162391259     -0.81380096237235
  H   -1.01865787713054     -0.01854363840297     -1.46902505675525
