19
Coordinates from ORCA-job mp2_opt
  C   -2.77356038913144     -1.09395362984423     -0.53181995996855
  C   -0.69662444855162      0.02369475129716     -0.02186398101909
  C   -1.40651077490607      1.09667109827989      0.51880441991717
  C   -2.79862152087119      1.07300514899081      0.52949102679218
  C   -3.48352668881527     -0.01992873460181      0.00182207764252
  H   -3.30366720888522     -1.94671486311161     -0.94020044799177
  H   -0.86875558648920      1.94743089733116      0.92347054255385
  H   -3.34814053767082      1.90638160215396      0.95196289957837
  H   -4.56723270288951     -0.03537084189101      0.00775651063836
  C   0.78331133571947      0.02457081807894      0.00128696337482
  C   2.75465529282179      0.68106556980384     -0.86960712429385
  H   3.30758440249791      1.25143940886494     -1.60924811086780
  N   1.42326008532701      0.74166164857824     -0.93296975499692
  N   1.38961508127839     -0.72266741284060      0.93439414463653
  N   3.46705735295084     -0.01952259656426      0.01492289741197
  C   2.72287153230098     -0.70015676500849      0.88889935718924
  H   3.24910589334959     -1.29147517923658      1.63156229527639
  C   -1.38144050364221     -1.07945633027616     -0.53366698865919
  H   -0.82392361439342     -1.91931859000418     -0.93428176721425
