19
Coordinates from ORCA-job mp2_opt
  C   -2.76938849205256     -1.08622929292412     -0.55269747787659
  C   -0.69610990083463      0.03133676027661     -0.02939932960026
  C   -1.40864989246244      1.08985900807665      0.53605704058156
  C   -2.80048295476179      1.06042369705209      0.54969575715928
  C   -3.48221954839508     -0.02463707886424      0.00194928537839
  H   -3.29736521371824     -1.93350121224897     -0.97501764717463
  H   -0.87223048048573      1.93492659023826      0.95419284636339
  H   -3.35234984624725      1.88235699196738      0.99109669762169
  H   -4.56585619241292     -0.04405914816878      0.00924855911210
  C   0.78230716236538      0.03053768708430      0.00376429662254
  C   2.75839620371423      0.77912416403039     -0.77742696718271
  H   3.31548604381838      1.43085183004165     -1.44307636095351
  N   1.42751542255894      0.85044818027224     -0.83784877872133
  N   1.38331119340482     -0.82876945840938      0.83883575249416
  N   3.46603300184209     -0.02425437913131      0.01919497546122
  C   2.71669428537597     -0.80423671108070      0.80101217135927
  H   3.23877135999405     -1.48297632056922      1.46804371332453
  C   -1.37751060181391     -1.06784179798885     -0.55453407359260
  H   -0.81650654988931     -1.90008650965402     -0.96591246037650
