19
Coordinates from ORCA-job opt
  C   -2.96769675368010      0.36893937106420      0.46297416430587
  C   -0.87464785591696      1.49732742140089      0.04538332083167
  C   -1.57417384926522      2.63362440716626     -0.37691605237075
  C   -2.96443987627534      2.63010822793281     -0.37666726255138
  C   -3.66571237377452      1.50004253859719      0.04184069177460
  H   -3.50979101262713     -0.51133303493986      0.78949588145666
  H   -1.01770747968587      3.50445571199003     -0.70049786637656
  H   -3.50402473700825      3.51159332773553     -0.70408188042028
  H   -4.74986163873690      1.50064015616724      0.03927434624859
  C   0.59946766574763      1.49549067610785      0.04609264101712
  C   2.56193033894539      2.53947662217905     -0.34285298555034
  H   3.10207206654349      3.42192646871358     -0.67168067061410
  N   1.23310378485480      2.60412786328924     -0.36641569207133
  N   1.22993144196115      0.38528303134886      0.45904334978242
  N   3.29214763706241      1.49197840444743      0.04693553997633
  C   2.55900875845258      0.44648653703028      0.43637906482496
  H   3.09648392716235     -0.43753612863420      0.76535070525034
  C   -1.57742995943135      0.36270422924971      0.46671093188031
  H   -1.02365808432815     -0.50933783084618      0.79163177260586
