19
Coordinates from ORCA-job opt
  C   -2.96166841465747      1.91611209868927     -1.09544759684026
  C   -0.87460832101001      1.49597979320269      0.04318541243896
  C   -1.58020846814969      1.07728655591803      1.17701035262206
  C   -2.97049818628013      1.08111490749989      1.16747772510857
  C   -3.66564367315965      1.50035085243368      0.03392248606009
  H   -3.49887866879996      2.24177656019617     -1.97902107083647
  H   -1.02876222414052      0.75452495639474      2.05133311189830
  H   -3.51458339265886      0.75669997595094      2.04729535700210
  H   -4.74980818133624      1.50346801475317      0.03082711323660
  C   0.59958249054111      1.49515287679452      0.04863989680692
  C   2.55637749293904      1.10864584651758      1.10393037477840
  H   3.09179498219690      0.78297351788136      1.99042296570554
  N   1.22712283664584      1.08595381001455      1.16196311022429
  N   1.23577470601431      1.90369998088567     -1.05996089903488
  N   3.29202213486640      1.49424758794453      0.05879006926001
  C   2.56455501133970      1.88007341218070     -0.99195324779625
  H   3.10687239678312      2.20542751580005     -1.87435753480019
  C   -1.57133688514213      1.91581056436809     -1.09567891361934
  H   -1.01310863599175      2.23670217257437     -1.96637671221447
