19
Coordinates from ORCA-job opt
  C   -2.96810501169414      0.36869662869149      0.45949001677256
  C   -0.87453991700218      1.49678237553042      0.04344860043946
  C   -1.57357770474179      2.63199554102482     -0.38212497551775
  C   -2.96393344829013      2.62831911277597     -0.38403339833145
  C   -3.66572301947408      1.49919063384770      0.03609482411220
  H   -3.51032484831704     -0.51128154965706      0.78661045417579
  H   -1.01781806603754      3.50317180447760     -0.70597418120989
  H   -3.50289558184878      3.50915889118037     -0.71420405077960
  H   -4.74988715894255      1.50031841262028      0.03375116238793
  C   0.59973286492037      1.49570115681593      0.04785884707305
  C   2.56250076610907      2.54080775767435     -0.33571251046693
  H   3.10289074403676      3.42377265985953     -0.66278115408155
  N   1.23359897402682      2.60472273420977     -0.36313178987189
  N   1.22950450031600      0.38580281198956      0.46278328206611
  N   3.29216628500870      1.49377674121337      0.05603539267675
  C   2.55862960301862      0.44781251470276      0.44340974735224
  H   3.09576926435121     -0.43589315612522      0.77381515762059
  C   -1.57776948003492      0.36264519157186      0.46497289144403
  H   -1.02521876540440     -0.50950126240353      0.79169368413836
