19
Coordinates from ORCA-job opt
  C   -2.96870937544138      0.40417328781292      0.54615943650786
  C   -0.87537516153258      1.49742943159654      0.04746834182669
  C   -1.57283260445678      2.59651901956926     -0.46316355944401
  C   -2.96284966598695      2.59240278156922     -0.47188304491521
  C   -3.66371054853105      1.49850830746233      0.03357381974099
  H   -3.51107413305493     -0.44690038937828      0.94194207774668
  H   -1.01321303355265      3.44195089022664     -0.84517754273578
  H   -3.50067180892455      3.44386788566168     -0.87298625687054
  H   -4.74804054161135      1.49916131984714      0.02876559680512
  C   0.60086794858743      1.49675063590939      0.05345605453206
  C   2.55934853680037      2.58239061552489     -0.19665843656837
  H   3.10114431213472      3.50219965898486     -0.39657299600255
  N   1.23071515575030      2.65123433299948     -0.21079937531070
  N   1.22801824952423      0.34038603773295      0.31537236757181
  N   3.29032258938744      1.49335030478384      0.05203287777641
  C   2.55684865374911      0.40602403791951      0.30063207762439
  H   3.09651409858130     -0.51500644228911      0.50067901496641
  C   -1.57867535185225      0.39854951331972      0.55042683423349
  H   -1.02362631957044     -0.44699422925299      0.93873371251526
