19
Coordinates from ORCA-job mp2_opt
  C   -2.78019993980871     -1.17161670618653     -0.29580068362489
  C   -0.69359446704585      0.00810584390372     -0.02363681024167
  C   -1.39401805190929      1.17767068856205      0.28767386844786
  C   -2.78459493537400      1.16669599921695      0.30580186398867
  C   -3.48043272342465     -0.00475387156516      0.00919067825515
  H   -3.32028442889030     -2.08286825765329     -0.52608675427558
  H   -0.83992643473433      2.08324166520097      0.50570437603074
  H   -3.32755318516597      2.07114546783390      0.55530177337621
  H   -4.56447845789384     -0.00892499458281      0.01740173727768
  C   0.77789524444910      0.00687446702077      0.00462923697771
  C   2.74201479692963      1.05637807963388     -0.34688685805386
  H   3.28712379560525      1.94592178045304     -0.64669220809718
  N   1.41233940683249      1.12555030413740     -0.37906704634368
  N   1.39864960774975     -1.12388723151113      0.37376277570946
  N   3.46579659349197     -0.00720422148806      0.01019718922692
  C   2.72924296269081     -1.06565557411678      0.35580118606169
  H   3.26350842679274     -1.96308087217129      0.65167512549535
  C   -1.38953438011439     -1.17371653876595     -0.29568380622736
  H   -0.83249183018040     -2.07803002792168     -0.51059364398323
