19
Coordinates from ORCA-job mp2_opt
  C   -2.78433175137248     -1.19424057671728      0.17260769400311
  C   -0.69429137972858      0.00169646650896      0.00947383215561
  C   -1.39432431867274      1.19976736911267     -0.17065420757809
  C   -2.78475880540974      1.19344813421503     -0.17962978778324
  C   -3.48336606274409     -0.00079948653682     -0.00546298940166
  H   -3.32560356866796     -2.12346526993496      0.30960214124429
  H   -0.83884946802169      2.12083569069956     -0.29875361882462
  H   -3.32624528029974      2.12117887822443     -0.32559785979081
  H   -4.56751629390128     -0.00153907731114     -0.00908261148895
  C   0.77851835637865      0.00133718510087     -0.00273830661732
  C   2.73961246357106      1.09679028206182      0.20396615464540
  H   3.28000658996470      2.02174358490314      0.37945937824604
  N   1.41029341219673      1.16394740210317      0.22179912386784
  N   1.40723618035794     -1.16426637421001     -0.21936971587304
  N   3.46921928031184     -0.00199232237389     -0.00303607495171
  C   2.73679437487406     -1.09961589051775     -0.20584763596868
  H   3.27476606875488     -2.02648757215778     -0.37865003841608
  C   -1.39391014132104     -1.19914584010218      0.17147610758245
  H   -0.83825665627052     -2.12020258306783      0.29848141494945
