19
Coordinates from ORCA-job mp2_opt
  C   -2.78196171136352     -1.18031349989813      0.25489450309434
  C   -0.69382609519779      0.00525515336718      0.01920889496912
  C   -1.39368774754884      1.18616616640413     -0.24902038264974
  C   -2.78421652139804      1.17736285890303     -0.26451768463356
  C   -3.48138868706595     -0.00287934807828     -0.00845760372016
  H   -3.32282805148024     -2.09831196277023      0.45461141352333
  H   -0.83868225607641      2.09758833498124     -0.43727612996656
  H   -3.32641291096670      2.09089743635502     -0.48041825446178
  H   -4.56548066631732     -0.00548144632175     -0.01547287335723
  C   0.77797002676738      0.00432371561497     -0.00367035080721
  C   2.74068485673572      1.07243570039114      0.29933497415099
  H   3.28375949169939      1.97614972228830      0.55760229962174
  N   1.41115482499675      1.14035678798767      0.32745675069159
  N   1.40201660565519     -1.14001607738181     -0.32217029579609
  N   3.46694162543920     -0.00482628738351     -0.00819730802603
  C   2.73219035194344     -1.07901348687003     -0.30576358680610
  H   3.26803589515554     -1.98806506941742     -0.56041304544889
  C   -1.39139293945090     -1.18385079577055      0.25470901403963
  H   -0.83503509152691     -2.09474190240098      0.44081666558263
