19
Coordinates from ORCA-job opt
  C   -2.96219580965839      2.70603825695074     -0.05776144923591
  C   -0.87454593254983      1.49768916261871      0.04371440854681
  C   -1.57952156770062      0.29247023549062      0.13834470120984
  C   -2.96984132086093      0.30176901413848      0.13437785116680
  C   -3.66571232713271      1.50599889848215      0.03666978016508
  H   -3.49981461941839      3.64440297909481     -0.13398279117261
  H   -1.02826034210013     -0.63655873795769      0.21393970244873
  H   -3.51341615891873     -0.63338507043159      0.20775808398960
  H   -4.74987236943443      1.50925350723480      0.03422909860635
  C   0.59971379278478      1.49332454058287      0.04778479538447
  C   2.56408213653895      2.60054722419936     -0.03682870130318
  H   3.10585745902703      3.53839037820946     -0.11133676039546
  N   1.23529772493443      2.67141617324094     -0.04590892284737
  N   1.22778894497796      0.31149425805978      0.14481067103508
  N   3.29215808279222      1.48535046929511      0.05507081933907
  C   2.55700727885756      0.37449132875713      0.14295859049053
  H   3.09279981235105     -0.56654892588726      0.22036095588773
  C   -1.57184189040177      2.70706718614710     -0.05467224328874
  H   -1.01468289408801      3.63279012177446     -0.12753059002678
