19
Coordinates from ORCA-job opt
  C   -2.96172524103728      1.91846055309319     -1.09445791266341
  C   -0.87455870973794      1.49830851452440      0.04406046604182
  C   -1.58017593370250      1.08083049074319      1.17830471896254
  C   -2.97046560427955      1.08442011006789      1.16872901259389
  C   -3.66574826384126      1.50163072007146      0.03450431517665
  H   -3.49887969926852      2.24455607362311     -1.97791313844085
  H   -1.02889871122390      0.75849842191702      2.05289816139644
  H   -3.51442633047380      0.76011341535792      2.04867167660192
  H   -4.74990920316258      1.50143934579497      0.03026262025918
  C   0.59962513443190      1.49497281145025      0.04853357483050
  C   2.55643249743987      1.10404399324517      1.10211058818752
  H   3.09195672497986      0.77656486532633      1.98787907802900
  N   1.22720178625103      1.08387480331716      1.16110289733255
  N   1.23577812352236      1.90319866466687     -1.06021310588453
  N   3.29212329260032      1.48862889359868      0.05658129415308
  C   2.56450952426980      1.87685166093438     -0.99325899047075
  H   3.10690821416730      2.20149329292226     -1.87588389406837
  C   -1.57140575717213      1.91850460068807     -1.09458736689004
  H   -1.01334184376299      2.23961076865766     -1.96532099514713
