19
Coordinates from ORCA-job opt
  C   -2.96497416881743      0.64584637962089     -0.81376254848513
  C   -0.87466347247999      1.49711539865765      0.04382892947567
  C   -1.57704566795252      2.35569193993342      0.89721895130315
  C   -2.96745705607987      2.35394162233389      0.88975313119912
  C   -3.66553797616854      1.50081861285576      0.03604144137287
  H   -3.50450302430112     -0.01882018069418     -1.47887178590240
  H   -1.02313735377367      3.01340058994688      1.55544616257103
  H   -3.50896136858640      3.02002795505436      1.55182985586361
  H   -4.74971798465233      1.50226973641087      0.03303075509219
  C   0.59955835726270      1.49518109248364      0.04796406889206
  C   2.56151619582677      0.70178416231525     -0.73520786851216
  H   3.10180767151086      0.03397004772295     -1.39899916444264
  N   1.23249996471299      0.65603021428678     -0.78631669664591
  N   1.23006896635592      2.33259460590946      0.88574004237948
  N   3.29201287261110      1.49156536755560      0.05546777361823
  C   2.55926980494018      2.28327238401975      0.84204346739727
  H   3.09754837988488      2.94968848039724      1.50886802508968
  C   -1.57454367307784      0.64040585067012     -0.81346773665756
  H   -1.01874046721567     -0.01878425948033     -1.46860780360855
