19
Coordinates from ORCA-job opt
  C   -2.96166574016285      1.91812322474913     -1.09451219602371
  C   -0.87455797473224      1.49769981125845      0.04385560187588
  C   -1.58007511641478      1.07919720656768      1.17770868217331
  C   -2.97038522572174      1.08265884590724      1.16809194126734
  C   -3.66572334123490      1.50086030547641      0.03426626802175
  H   -3.49889481428671      2.24443629456077     -1.97784939926192
  H   -1.02914408183736      0.75620976547837      2.05226896861071
  H   -3.51439964022533      0.75787435784399      2.04783222298698
  H   -4.74988350334884      1.50129469607945      0.03025328765902
  C   0.59969540018028      1.49520511620556      0.04860516996106
  C   2.55651854198377      1.10450599871453      1.10222005866761
  H   3.09189585139695      0.77647287551430      1.98787825952678
  N   1.22728440295018      1.08347194951462      1.16090225469700
  N   1.23582999052526      1.90468569105077     -1.05967718848602
  N   3.29217809943326      1.49058920375647      0.05725866297920
  C   2.56456622381242      1.87915370844370     -0.99242351838410
  H   3.10676056826327      2.20510980009959     -1.87469571269496
  C   -1.57131747826877      1.91833069564506     -1.09461760608852
  H   -1.01368316231182      2.24012045313392     -1.96536375748743
