19
Coordinates from ORCA-job opt
  C   -2.96812704271166      0.36861232016248      0.45928336908533
  C   -0.87458058597012      1.49665328338129      0.04310646589113
  C   -1.57363848290699      2.63194329196540     -0.38230747362085
  C   -2.96396480104864      2.62833593141787     -0.38396047871327
  C   -3.66574763418810      1.49928534368280      0.03637742256086
  H   -3.51041096511666     -0.51138295851947      0.78627911758756
  H   -1.01760143967810      3.50299915625847     -0.70603557552092
  H   -3.50298188912044      3.50921700889877     -0.71395893583194
  H   -4.74991372884215      1.50067623687107      0.03475313549214
  C   0.59969064015253      1.49564808166543      0.04772197713560
  C   2.56246737152593      2.54072119784936     -0.33596095023454
  H   3.10288072217643      3.42363836628817     -0.66314146761295
  N   1.23361613494755      2.60449485191843     -0.36356466456348
  N   1.22953641704345      0.38600644817891      0.46314860387621
  N   3.29221390519765      1.49388655058457      0.05627439898225
  C   2.55860836135807      0.44802924110084      0.44392574623744
  H   3.09577626472392     -0.43550786557617      0.77475917167324
  C   -1.57782128252687      0.36243314886562      0.46447560713731
  H   -1.02499996501579     -0.50969163499385      0.79082653043888
