19
Coordinates from ORCA-job mp2_opt
  C   -2.78672146023812     -1.20193113795263     -0.08504605508916
  C   -0.69459137607525      0.00026118145223     -0.00309996711243
  C   -1.39483038597902      1.20861097831945      0.08873635246215
  C   -2.78520299121964      1.20375235828684      0.09617778118204
  C   -3.48548994484136      0.00119465601545      0.00789058762630
  H   -3.32829414454488     -2.13841455473302     -0.15540643660251
  H   -0.83933477801517      2.13597497982533      0.15332838580733
  H   -3.32557802076215      2.14052537898592      0.17173116850265
  H   -4.56964857923573      0.00157317892518      0.01167641704444
  C   0.77935656637174     -0.00052911527967     -0.00312423188459
  C   2.73948896721412     -1.11273334097996      0.10945922086003
  H   3.27783180389743     -2.05081051133171      0.20207720518654
  N   1.41026768076241     -1.17923671719646      0.11350460638506
  N   1.41156562430637      1.17802996195976     -0.11425850949916
  N   3.47166416227236     -0.00121867874257      0.00492589371800
  C   2.74068574533033      1.11077886716589     -0.10313676122559
  H   3.28005766736426      2.04859857563381     -0.19230852419061
  C   -1.39633886897623     -1.20779001613967     -0.08694931963693
  H   -0.84197966763145     -2.13565704421417     -0.15406281353357
