19
Coordinates from ORCA-job opt
  C   -2.96764949750148      1.40747021335709      1.24444817209610
  C   -0.87459226007271      1.49594278376609      0.04431281091452
  C   -1.57427947320838      1.58970877220825     -1.16414601677266
  C   -2.96458613843433      1.59226194515540     -1.16050462193486
  C   -3.66572345430757      1.50226662748414      0.04126088040552
  H   -3.50943102336458      1.33609423185023      2.18078971240081
  H   -1.01820218508905      1.65976266899025     -2.09074860449812
  H   -3.50400292244579      1.66550760018160     -2.09806756561190
  H   -4.74988408355512      1.50654266973586      0.04019968210809
  C   0.59959478686286      1.49456286410615      0.04611357736098
  C   2.55905095153650      1.40664632327812      1.16181997040735
  H   3.09677584423364      1.33362155380971      2.10209989385482
  N   1.22996183081767      1.40268724130444      1.22714978260595
  N   1.23297370004218      1.58535473391199     -1.13340492683719
  N   3.29209466110698      1.49209644820760      0.04935028952012
  C   2.56189487306945      1.57888676524488     -1.06488352166767
  H   3.10198510874185      1.65120201356966     -2.00386132037269
  C   -1.57736039957827      1.40404748329660      1.25113738545136
  H   -1.02362331885382      1.33133606054191      2.17893642056948
