19
Coordinates from ORCA-job mp2_opt
  C   -2.79529335652950     -1.14815497727440      0.31243812272510
  C   -0.69354605280009      0.00783910718570      0.05394629970886
  C   -1.37635883849484      1.17179782822729     -0.31113371903619
  C   -2.76634700042753      1.16986872095171     -0.36302778291012
  C   -3.47832782188028      0.01376355263515     -0.04574360413079
  H   -3.34788917409076     -2.04795115844460      0.55744146682922
  H   -0.81030859026431      2.06621703242743     -0.54442072228745
  H   -3.29582415842282      2.06964858248322     -0.65478299298654
  H   -4.56182722206731      0.01724814268290     -0.08022858083464
  C   0.77821332105014     -0.00925536469403      0.04497754286976
  C   2.71929778542068     -1.05589095951795     -0.42026759015170
  H   3.24605832613867     -1.93514836938741     -0.77773011199021
  N   1.38822360261609     -1.11477149397924     -0.40889138888438
  N   1.42055188567939      1.10042050802739      0.44093309214264
  N   3.46387625854091     -0.01395816024164     -0.04328696033560
  C   2.74920143928418      1.03384531122247      0.37382261653411
  H   3.30135572535735      1.91346247836548      0.68956833512828
  C   -1.40506100532186     -1.15983917756587      0.34467487321092
  H   -0.86078012378814     -2.06232560310358      0.59782010439872
