19
Coordinates from ORCA-job opt
  C   -2.96207616663955      2.70570469898880     -0.05995787218735
  C   -0.87452132713689      1.49769910267706      0.04378319838753
  C   -1.57947801854994      0.29265811279022      0.14077761040860
  C   -2.96974080728418      0.30214351988010      0.13679711615262
  C   -3.66579896257475      1.50600630604162      0.03658442729809
  H   -3.49980612390450      3.64392056747145     -0.13806226472543
  H   -1.02856216306713     -0.63644425677101      0.21804630371145
  H   -3.51344580392517     -0.63285243295475      0.21209434074342
  H   -4.74995970655065      1.50923347197957      0.03374563276790
  C   0.59973922856796      1.49330108242042      0.04756748653556
  C   2.56421909097031      2.60070849396513     -0.03326607995576
  H   3.10568810799232      3.53900188433001     -0.10495378011511
  N   1.23552256250772      2.67162248579090     -0.04179757901187
  N   1.22802846136263      0.31124759713693      0.14052314519633
  N   3.29213361565538      1.48532724732570      0.05498196006151
  C   2.55714728363657      0.37429042730139      0.13934725548014
  H   3.09264902747037     -0.56721435348962      0.21370135997237
  C   -1.57177868682703      2.70691787416054     -0.05676393428739
  H   -1.01495861170346      3.63272917095551     -0.13115032643261
