19
Coordinates from ORCA-job opt
  C   -2.96077630692659      1.92345414681363     -1.09464069058794
  C   -0.87458059300540      1.49841021510460      0.04377487854199
  C   -1.58109055684918      1.08287959779047      1.17818895824825
  C   -2.97137688174925      1.09014931105335      1.16881528599092
  C   -3.66571857531795      1.50923542262845      0.03470759905743
  H   -3.49718985818776      2.25033473743123     -1.97824573738712
  H   -1.03055300914911      0.75931380940088      2.05277785270671
  H   -3.51605249882847      0.76760426476743      2.04895303232385
  H   -4.74986701887337      1.51290367362813      0.03098642680898
  C   0.59959715025093      1.49215514835356      0.04844365991647
  C   2.55554076492748      1.09617199943548      1.10177414642191
  H   3.09037437257862      0.76702572504724      1.98733041213521
  N   1.22626550578333      1.07868297016564      1.16064099670135
  N   1.23667703910385      1.90038880088449     -1.05977150848531
  N   3.29208629014256      1.48054465096026      0.05675404362777
  C   2.56536570253812      1.87128354468016     -0.99276846949029
  H   3.10849329352282      2.19635082567536     -1.87477658829374
  C   -1.57044777754491      1.91984743848067     -1.09500511784494
  H   -1.01174804241571      2.23926471769896     -1.96593918039149
