19
Coordinates from ORCA-job mp2_opt
  C   -2.77800686612031     -1.16197552142596     -0.33561038284997
  C   -0.69349528123962      0.01208884661601     -0.02771747387727
  C   -1.39515994683152      1.16852441946829      0.32559339588863
  C   -2.78582499147885      1.15465894001455      0.34548436270220
  C   -3.47969984929846     -0.00721562721178      0.00941827143583
  H   -3.31673193968075     -2.06610443506887     -0.59520218545015
  H   -0.84266725474174      2.06774642032311      0.57299678947175
  H   -3.33002200864375      2.04889052574587      0.62696771958183
  H   -4.56369671319776     -0.01357990644946      0.01852126900566
  C   0.77794413032330      0.01045969949574      0.00620615477285
  C   2.74421362555472      1.03746435166999     -0.39384782917689
  H   3.29183312642932      1.91042592044248     -0.73495627149993
  N   1.41441842671368      1.10875932964892     -0.42939434174934
  N   1.39476320436800     -1.10485640510813      0.42530135268028
  N   3.46487156720495     -0.01077955168114      0.01162630198912
  C   2.72583062024407     -1.05055712274685      0.40521223420661
  H   3.25793826313868     -1.93480445069660      0.74183442956905
  C   -1.38724106328483     -1.16176199779853     -0.33564197668612
  H   -0.82915504945913     -2.05851143523762     -0.57856582001418
