19
Coordinates from ORCA-job mp2_opt
  C   -2.80414653159312     -1.10447067820733     -0.41887864489816
  C   -0.69411786402411      0.01267856976892     -0.07258668304312
  C   -1.36638627363723      1.13632411956505      0.41451375178373
  C   -2.75635470467383      1.13657014280366      0.47912783208487
  C   -3.47706112370528      0.02063921426299      0.05618245122887
  H   -3.36352258538414     -1.97450089559898     -0.74304181937757
  H   -0.79530113854419      2.00268807702316      0.72942706400027
  H   -3.27787111147754      2.00559938914113      0.86360469042479
  H   -4.56011988561756      0.02604372017207      0.10026443148339
  C   0.77938274252416     -0.01592987475134     -0.05972928994360
  C   2.70860041989478     -0.99207231339310      0.57406130669465
  H   3.22660505830816     -1.81183536349243      1.06185179873597
  N   1.37660530789962     -1.04545577675596      0.55848690232722
  N   1.43015231955224      1.02408783040344     -0.60238528106156
  N   3.46219994598303     -0.01921285188000      0.05745859939408
  C   2.75864359648952      0.96116218389543     -0.51334811175695
  H   3.31912259021022      1.78369013520211     -0.94644469602851
  C   -1.41377697880772     -1.11923917431781     -0.46288498437918
  H   -0.87868478339700     -1.99882845384100     -0.80324131766920
