19
Coordinates from ORCA-job opt
  C   -2.96773691666422      1.40716623908605      1.24415160651708
  C   -0.87457555180842      1.49662313881896      0.04433669949125
  C   -1.57409135808042      1.59108935472162     -1.16413374051005
  C   -2.96443171806638      1.59328633735647     -1.16067659873315
  C   -3.66570337876859      1.50195721325985      0.04091114657641
  H   -3.50961446095826      1.33535578319776      2.18040502695346
  H   -1.01825901352260      1.66180825921392     -2.09081952435143
  H   -3.50373402819523      1.66685131936220     -2.09827944973312
  H   -4.74987040974720      1.50494102425687      0.03965733275354
  C   0.59963410427536      1.49472684567334      0.04622222239514
  C   2.55895149978448      1.40633939320146      1.16211238748016
  H   3.09663291525772      1.33304087961713      2.10239643153542
  N   1.22985301037330      1.40277710367678      1.22735759725173
  N   1.23310696113533      1.58508134912708     -1.13328104226127
  N   3.29209698024701      1.49132208482304      0.04967413069487
  C   2.56203529132773      1.57824252960215     -1.06462323308582
  H   3.10228340311561      1.64996390259694     -2.00355673677774
  C   -1.57740568672345      1.40416808143772      1.25103697637686
  H   -1.02417364298176      1.33126016097065      2.17910776742666
