20
Coordinates from ORCA-job opt
  C   0.99821441026721      1.02099162843639      0.01235850810357
  N   -0.41305279647278      1.03028698999475     -0.00751121681120
  C   1.70893045632932      0.90218752455049     -1.18240544776582
  C   1.67483343434699      1.11628972089662      1.22878212630450
  C   -1.22370618532190      0.32039770800962      0.84611966664371
  C   -1.19105060266071      1.71833222938851     -0.90781025882168
  C   -2.53557846625124      0.56315395888083      0.48607411653993
  H   -0.79516354576476     -0.32577886109660      1.59560325027753
  C   -2.51517616777352      1.45088368983501     -0.61643831062648
  H   -3.40502682657764      0.13714578198195      0.96209157020757
  H   -3.36655442120036      1.86143170477893     -1.13665305955376
  H   -0.73642294692626      2.37119836167826     -1.63587045426326
  C   3.10054063877056      0.89554891657348     -1.15691416340566
  H   1.16811847718253      0.79532774307133     -2.11581802751529
  C   3.78265394086356      0.98411821905104      0.05509540963947
  H   3.65147121707515      0.80317910574297     -2.08591697465193
  C   3.06628057431778      1.08941952568635      1.24583204540949
  H   4.86609261211150      0.97080902607782      0.07162281689227
  H   3.59064991695785      1.16581734599939      2.19150210539452
  H   1.10844628072670      1.23376068046286      2.14565729800249
