20
Coordinates from ORCA-job opt
  C   0.99543811259317      1.06757499190511      0.01928195532813
  N   -0.41750131718230      1.09619982613610     -0.00585978876750
  C   1.72786255670743      1.41945423494572     -1.11759702432504
  C   1.67397254010027      0.63996901898942      1.16355415262063
  C   -1.24244466848311      0.96302832162644      1.08960136754134
  C   -1.19566643135018      1.12188237002533     -1.14316989834151
  C   -2.54843442792822      0.93257121941443      0.64712943220548
  H   -0.84884741452440      0.96791752166891      2.09144733974866
  C   -2.51849903917465      1.02643805707065     -0.76492795183174
  H   -3.42051807704991      0.85980064601469      1.27809274980022
  H   -3.36176755542479      1.01858196474292     -1.43781071999958
  H   -0.75488833254734      1.15597832525589     -2.12430466985716
  C   3.11786501956867      1.36496320877724     -1.09853390313462
  H   1.22145783365232      1.77411917335505     -2.00566008457120
  C   3.79540836835547      0.95516451853157      0.04671580732330
  H   3.66994856400325      1.64801410450606     -1.98745765548402
  C   3.06471814105235      0.59670193508519      1.17616714576654
  H   4.87802466144685      0.91539563223831      0.05858188507372
  H   3.57471350271377      0.26431448019793      2.07313422981347
  H   1.12365996347131      0.31643044951305      2.03701763109089
