20
Coordinates from ORCA-job opt
  C   1.00012824516708      0.94793368509255      0.01705910539614
  N   -0.41477530934310      0.93256811587105     -0.02063718036237
  C   1.66008031024830      1.86676421198081      0.83221335662627
  C   1.72025242535461      0.07377041494597     -0.79579362196362
  C   -1.17751192491256      1.23745862039574     -1.12170351717097
  C   -1.23340439324293      0.74513715249727      1.06576985669324
  C   -2.50512500387864      1.22085774745906     -0.73502808934694
  H   -0.70518390356499      1.45754794417340     -2.06621571415084
  C   -2.54070952387639      0.90728017699732      0.64447125936842
  H   -3.34783811010521      1.42052523988529     -1.37844936737486
  H   -3.41728337055779      0.79811257205453      1.26392658093707
  H   -0.81339464213897      0.48331251344173      2.02429864895913
  C   3.05198682309211      1.88850934958704      0.85259029104305
  H   1.07731915779663      2.55560493126671      1.43362163782414
  C   3.77927048207746      1.01647704263187      0.04409270511632
  H   3.56796182931598      2.59938581176739      1.48778729193496
  C   3.11192624024459      0.11380370502290     -0.78205778647872
  H   4.86266969087205      1.04116641254750      0.05699645029446
  H   3.67452456751256     -0.56723921202571     -1.41028153363014
  H   1.18360440993920     -0.63447543559242     -1.41726037371472
