20
Coordinates from ORCA-job opt
  C   0.99498119701532      0.99751619421059     -0.00100832217894
  N   -0.41586823694531      0.99560383639565     -0.08420253308804
  C   1.70199807049631      2.20213395262929      0.03003048475451
  C   1.70037592695682     -0.20891380815495     -0.01710012114777
  C   -1.20854930914093      2.09411973494480     -0.33521858966122
  C   -1.22903385242756     -0.07325575696199      0.22625030144111
  C   -2.52842990645775      1.71171032618586     -0.21597217237518
  H   -0.78285711941580      3.03334853311204     -0.64393246884143
  C   -2.54129006759260      0.34313914875180      0.14552531042313
  H   -3.38160310069995      2.35057613566253     -0.38302539544045
  H   -3.40581315696779     -0.27422809366219      0.33363658873880
  H   -0.81770956322047     -1.02215918072440      0.52432204334323
  C   3.09282069427780      2.19470831040143      0.07531686397797
  H   1.17313692540429      3.14551952221725      0.06149039748823
  C   3.79565163854247      0.99304985375315      0.08141120490721
  H   3.62520253532688      3.13841680052579      0.10845137739254
  C   3.09040236113237     -0.20680219283079      0.03741375291195
  H   4.87839831720332      0.99147561667404      0.11948739354356
  H   3.62138887107736     -1.15183542229681      0.02855164216632
  H   1.17129777543522     -1.14962351083309     -0.09602675835554
