20
Coordinates from ORCA-job opt
  C   0.99821499283829      1.00988031468031      0.00903224114585
  N   -0.41311821132548      1.02018577410215     -0.00457793233313
  C   1.69700666741317      2.18630004064747      0.28201107393831
  C   1.68680441968877     -0.17850134702552     -0.23608757210448
  C   -1.19382290845624      1.97482447430543     -0.61202524929064
  C   -1.22107653684016      0.05757643025354      0.55200667865562
  C   -2.51678971619221      1.61668435388706     -0.43585473835551
  H   -0.73889937841273      2.79048986402978     -1.15118865923354
  C   -2.53415374284841      0.41037377163908      0.30477378597369
  H   -3.36889962804957      2.16248053165456     -0.81005437128526
  H   -3.40291761000248     -0.13819659028490      0.63393005222276
  H   -0.79284342793051     -0.75723767952213      1.11382836897780
  C   3.08867949165365      2.17312452192289      0.29212805979307
  H   1.14661609989376      3.09368404561581      0.50335152267947
  C   3.78278473944519      0.98831541708931      0.05405848055271
  H   3.63023416879739      3.08791955050614      0.50417432662050
  C   3.07833276066169     -0.18587106441067     -0.20483490839395
  H   4.86627496803594      0.98006893938307      0.07049727576087
  H   3.61211824605731     -1.10939636231075     -0.39789958538956
  H   1.12995460557262     -1.07820498616262     -0.47186984993457
