20
Coordinates from ORCA-job opt
  C   0.99594785230057      1.05205273579385     -0.01409420005028
  N   -0.41781757156183      1.07615701754786     -0.04354582695124
  C   1.69004161911119      1.57061352068006      1.08268490612917
  C   1.71701377280474      0.47289579360450     -1.06204806412969
  C   -1.20680462485603      0.68646497242220     -1.10442137633939
  C   -1.23709191033046      1.38657598637569      1.02084712616575
  C   -2.52761363507057      0.77145040495507     -0.71820850405299
  H   -0.78225450909356      0.43222403826220     -2.05969785161367
  C   -2.54658358576858      1.20924059181622      0.62768245827677
  H   -3.37637912661448      0.54677877044469     -1.34510155275017
  H   -3.41234096498614      1.37520947850477      1.24960707423183
  H   -0.83643616550421      1.67043440499543      1.97791625270700
  C   3.08018670640143      1.52762548891264      1.11694574823967
  H   1.15688782461400      2.03957625859158      1.89847727886439
  C   3.79867699795173      0.96214615124860      0.06729929723176
  H   3.59960139634021      1.94034744789002      1.97422839454502
  C   3.10734694607024      0.43825318214523     -1.02132294079303
  H   4.88116544689433      0.93048305281403      0.09718739938859
  H   3.64793326032762     -0.01387767937783     -1.84498682017136
  H   1.20301927096980      0.02984738237319     -1.90405179892814
