20
Coordinates from ORCA-job opt
  C   0.99620632396930      1.01382847991445      0.00501025110585
  N   -0.41349388502852      1.04155335331534     -0.05056057685981
  C   1.69243244721669     -0.13366975974015     -0.37929633265502
  C   1.69945686843246      2.15111262846701      0.40795452795063
  C   -1.19851293362924      0.26567444830001     -0.87233459529519
  C   -1.22601992135620      1.77758353584324      0.78218948532630
  C   -2.52073526575064      0.52880578360423     -0.57498611731884
  H   -0.75688536601252     -0.34863935650683     -1.63959103698377
  C   -2.53806074882001      1.47783844082286      0.47554829603487
  H   -3.37297368530891      0.09194012411716     -1.07179115097859
  H   -3.40588184497925      1.89288846090380      0.96398637305951
  H   -0.80591697585263      2.40210411257854      1.55325010461253
  C   3.08375988443643     -0.14281802004189     -0.34704677488649
  H   1.14752356319964     -1.02512917874689     -0.66480183078662
  C   3.78849009535672      0.98337738059669      0.07132557959871
  H   3.61578617539984     -1.04032035567808     -0.64124732774776
  C   3.08984062144166      2.12707899202926      0.45174733453154
  H   4.87154215019955      0.97024052524541      0.10009708589154
  H   3.62716051522467      3.01405326620811      0.76745773135156
  H   1.16078098186096      3.05699413876776      0.65848897404904
