20
Coordinates from ORCA-job opt
  C   0.99900597268302      1.03765297922697      0.03460047319278
  N   -0.41362794506914      1.06066601030011      0.00959044213895
  C   1.66629035653045     -0.11394243666126      0.45168374348638
  C   1.71491437848239      2.15614005892556     -0.39140793084432
  C   -1.18013616514036      1.37273618810989     -1.08756878626641
  C   -1.23207905828340      0.67828425422569      1.04458610779463
  C   -2.50708952123617      1.20145875940143     -0.74053209263156
  H   -0.71096973650297      1.65179961920769     -2.01783435658456
  C   -2.54018568796545      0.76793825999932      0.60663854679027
  H   -3.35103803107184      1.36410195480713     -1.39266746269028
  H   -3.41560318710989      0.55483789501334      1.20011785731577
  H   -0.81221542886822      0.42125112637175      2.00435944247063
  C   3.05812006036901     -0.13339125841802      0.46493504114183
  H   1.09008386306263     -0.98328265926020      0.74796103800600
  C   3.78049122360244      0.97997381797545      0.03919127565105
  H   3.57808858904650     -1.02699605282396      0.79076197374234
  C   3.10646057090971      2.12082326109377     -0.39295617037764
  H   4.86395678487191      0.95830399775504      0.04327420192231
  H   3.66405250166940      2.99074130542101     -0.72061658905985
  H   1.17597846001996      3.04540191932929     -0.69871575519832
