20
Coordinates from ORCA-job opt
  C   0.99632622543327      1.06378135273020     -0.01778122753066
  N   -0.41562259725345      1.09329261499755     -0.04466186953256
  C   1.69089062407520      1.66009103842191      1.03757277844676
  C   1.70724798094487      0.39683783528174     -1.01845532570622
  C   -1.20235122231471      0.81282237935863     -1.13970791431603
  C   -1.22983048152018      1.27033388009630      1.05269253343921
  C   -2.52282911753057      0.84071079123226     -0.74095789001261
  H   -0.77112300951191      0.68875535064599     -2.11864895747584
  C   -2.53981305053538      1.12248777053475      0.64625991335606
  H   -3.37410122812411      0.68482552900713     -1.38515507623502
  H   -3.40545338818877      1.20145291316259      1.28530468708999
  H   -0.81700634199418      1.43041894666045      2.03403374101618
  C   3.08045224581137      1.60504815814800      1.07704429019431
  H   1.15286728201663      2.20129420153250      1.80539592587280
  C   3.79201300642085      0.95631683207311      0.07094597179562
  H   3.60589174587906      2.07813683201163      1.89875069138585
  C   3.09759427227783      0.35687779705597     -0.97653359810305
  H   4.87429081885328      0.91785353396481      0.10334546120834
  H   3.63594093141964     -0.16285369394482     -1.76087801762837
  H   1.17911230384127     -0.11398506297071     -1.81316511726476
