20
Coordinates from ORCA-job opt
  C   1.00174121746909      0.95043905407937      0.01110682271780
  N   -0.41629914076337      0.93798382564706      0.00541933555091
  C   1.68744086925957      1.76724101413250     -0.88653568201635
  C   1.69332871027777      0.17720447250206      0.94159783857972
  C   -1.21308160557561      1.54351227464437      0.94544293906943
  C   -1.19812735134673      0.44105659409200     -1.00740303247659
  C   -2.52771975524496      1.40847500287759      0.53620047161426
  H   -0.77151082254284      2.02020325313650      1.80655346226828
  C   -2.51853002655680      0.71184072088106     -0.69503111019058
  H   -3.39076487968870      1.77705920786241      1.06850386952996
  H   -3.37411154652639      0.42638011131963     -1.28709070585773
  H   -0.74607105337071     -0.07547568395231     -1.83964683087381
  C   3.07946153646573      1.78930260124608     -0.86603213679995
  H   1.12341635507138      2.37496448754539     -1.58542653700230
  C   3.77895731651919      1.01637799574130      0.05951753301731
  H   3.61695769331663      2.42054842422727     -1.56434888620190
  C   3.08526890523226      0.21425443950582      0.96395745723153
  H   4.86237816219004      1.04005664574318      0.07648533716092
  H   3.62733772178847     -0.38807778816143      1.68390411522188
  H   1.13442769402598     -0.44884865306986      1.62822373945722
