20
Coordinates from ORCA-job opt
  C   0.99725564746982      1.01731499493261      0.00837331838369
  N   -0.41313395933576      1.02907594450526     -0.01848816743870
  C   1.71801517282027      1.56415211511382     -1.05446138407613
  C   1.66915864046961      0.44978815783889      1.09213053539402
  C   -1.22986472434115      1.18824896428494      1.07652165441501
  C   -1.18914988988829      0.85161893320377     -1.14021428054902
  C   -2.54004861050590      1.12114304560614      0.64444403281429
  H   -0.81110008662164      1.39367353915133      2.04845911039830
  C   -2.51428785863058      0.90095922322892     -0.75392171824169
  H   -3.41238276127263      1.23058558144462      1.26976644040009
  H   -3.36277983060086      0.78023315557819     -1.40925066294130
  H   -0.73396069747005      0.65106966380182     -2.09661910522962
  C   3.10917420992327      1.53756712789470     -1.03089320141931
  H   1.18847242066639      2.03149981394712     -1.87644839421079
  C   3.78539141391800      0.98274226447105      0.05372196847201
  H   3.66443821736251      1.96589169414266     -1.85752210107062
  C   3.06066428144607      0.44416418567747      1.11486350796130
  H   4.86874187098412      0.96993173587390      0.07170016622248
  H   3.57794903310665      0.00143358437956      1.95837598402560
  H   1.10194651050016     -0.00659372507677      1.89486529669039
