20
Coordinates from ORCA-job opt
  C   1.00280805914977      1.03721563414745      0.02834324320359
  N   -0.41608293492302      1.04835923293497      0.02326525716854
  C   1.69197028655536      0.64166407913979     -1.11669902294987
  C   1.68978942582012      1.39157793053994      1.18765429012559
  C   -1.21465370351359      0.07007359294590      0.56116117651259
  C   -1.19738256484708      1.98146545883121     -0.61100627627011
  C   -2.52991262576136      0.39537886656420      0.28056401198815
  H   -0.77380667022462     -0.76465663154678      1.08332138881082
  C   -2.51915847968901      1.60169105784260     -0.45823467125489
  H   -3.39381031593365     -0.17896984022909      0.57682203539941
  H   -3.37373228420975      2.14309395463906     -0.83312466749421
  H   -0.74314374571213      2.83186112303863     -1.09504667439100
  C   3.08411429192886      0.61937859400994     -1.10376287858352
  H   1.12944765708427      0.35637758631931     -1.99874760010556
  C   3.77933941982160      0.97500985341669      0.05110144626884
  H   3.62558885853456      0.31484006529334     -1.99202718465155
  C   3.08204054493430      1.35815498485443      1.19554462133568
  H   4.86288420812156      0.95271355636873      0.05924927016017
  H   3.62185206101732      1.63521426823721      2.09374115355448
  H   1.12635051184648      1.69405363265245      2.06327908117284
