20
Coordinates from ORCA-job opt
  C   0.99541674067057      0.99625571512990      0.01521743350264
  N   -0.41603344402364      1.00284262258765      0.03643376627876
  C   1.70186224778849      2.16111647928479     -0.29132889079569
  C   1.69220486897295     -0.16628141642929      0.35344369734371
  C   -1.21194245299242      2.11904730496528      0.16114375268179
  C   -1.21750839508050     -0.09317927457571     -0.19498153292896
  C   -2.52853746129930      1.72409898469226      0.03688736535166
  H   -0.78681970261376      3.07984316375478      0.39896727112320
  C   -2.53169127506926      0.32759882256999     -0.19599653443142
  H   -3.38668943322990      2.37284731847919      0.11861026484575
  H   -3.39126220470527     -0.30451838087610     -0.35571652075678
  H   -0.78917493331349     -1.06124756263631     -0.39419223892080
  C   3.09348860844683      2.15285450267278     -0.27796478609189
  H   1.16832929539215      3.05831664026000     -0.57901858675170
  C   3.79119922225135      0.99004850758953      0.03888597276717
  H   3.63130406000482      3.06100819948115     -0.52521084311441
  C   3.08336761583603     -0.16850028527513      0.35055063320674
  H   4.87466605070773      0.98674009906163      0.04361436202843
  H   3.61323458926752     -1.07736155676054      0.61194149797718
  H   1.14908500298911     -1.05702888397587      0.64411291668463
