20
Coordinates from ORCA-job opt
  C   0.99655349676338      0.99766669987993      0.01186564020631
  N   -0.41418036622529      1.00328165568204      0.01002979431388
  C   1.70180679876447      2.14349061560137     -0.35991932120053
  C   1.68712203571249     -0.14825660836084      0.41094323360800
  C   -1.20965795245776      2.10132455418323      0.24217668695686
  C   -1.21245546889784     -0.07620078433174     -0.29183377393522
  C   -2.52708788477434      1.71148665995124      0.10315966874385
  H   -0.77711598000977      3.03988084937206      0.54828666123028
  C   -2.52858253217027      0.33830073181101     -0.24177834871880
  H   -3.38682528872996      2.34708508420516      0.24752102404773
  H   -3.38860347678522     -0.28153246197464     -0.44209882333097
  H   -0.77708213614941     -1.02218419911993     -0.56974033217617
  C   3.09330757967579      2.13678049133718     -0.33542599402373
  H   1.16287264962567      3.02043035975541     -0.69804867663055
  C   3.78716172159037      0.99111953132220      0.04756838808076
  H   3.63474029343419      3.02858553332424     -0.62978128236617
  C   3.07853780921327     -0.15058392494043      0.41584738360527
  H   4.87063727706950      0.98808408897310      0.05940023445212
  H   3.60826109482887     -1.04394088024065      0.72634731133358
  H   1.13508832952185     -1.02031799642995      0.74087952580351
