20
Coordinates from ORCA-job opt
  C   1.00172679881115      0.95042979234382      0.01157920664258
  N   -0.41572019777252      0.93495077135785     -0.02893053906778
  C   1.65914671184530      1.92142751968503      0.76528655607690
  C   1.72205171886817      0.02032531367518     -0.73544051248913
  C   -1.17795288199724      1.35348751813338     -1.09147280644592
  C   -1.23329205967234      0.63185361438564      1.03112420829684
  C   -2.50622718331383      1.29256377343397     -0.70942810882552
  H   -0.70568849483934      1.66378833177614     -2.01039081656548
  C   -2.54135982190081      0.83607372475078      0.62911653490497
  H   -3.34938549888589      1.55353938522231     -1.32993075208575
  H   -3.41758328858490      0.66261497351568      1.23425044325741
  H   -0.81160060399005      0.27978705770817      1.95957230033120
  C   3.05112181527666      1.94352138509805      0.78858077722246
  H   1.07364761401397      2.64636876835323      1.31985984757870
  C   3.77918177994750      1.01466192609060      0.04662590311760
  H   3.56660483722567      2.69480534630370      1.37583662501102
  C   3.11406024004301      0.05680349677843     -0.71674632653340
  H   4.86262451978480      1.03806446565717      0.06256115114630
  H   3.67834843736831     -0.66680990694729     -1.29374595999314
  H   1.18479855777235     -0.72375725732183     -1.31290773157988
