20
Coordinates from ORCA-job opt
  C   0.99832008055738      1.00000348971881      0.00097328891478
  N   -0.41255523135519      1.00989171053363     -0.03746006573932
  C   1.71005171589436      0.19713526905179     -0.89100721134374
  C   1.67403527087861      1.80316266386263      0.92012323598750
  C   -1.21155185783059     -0.10466767521918     -0.13331434513667
  C   -1.20304279465276      2.13048292725326      0.05530218914993
  C   -2.52846547007485      0.31305768120226     -0.10526041495296
  H   -0.77370022137827     -1.08969436245280     -0.16447413684777
  C   -2.52303386727468      1.72424055874943      0.00678455944662
  H   -3.39173903231785     -0.33246004401242     -0.15080486732302
  H   -3.38115421112493      2.37747183518882      0.03745337985621
  H   -0.75749561568726      3.11174517371921      0.09480751695425
  C   3.10115000046253      0.18788148937093     -0.84866478347652
  H   1.17073560566533     -0.39553221892520     -1.62117796196882
  C   3.78264156690036      0.99220499775661      0.06285279835088
  H   3.65275693388406     -0.43653445859095     -1.54215512638799
  C   3.06576269041551      1.80166803797147      0.94197073981515
  H   4.86599542704909      0.98841542969892      0.08771743201742
  H   3.58944642637419      2.42433577060691      1.65830810229718
  H   1.10634458361496      2.40168972451588      1.62342467038690
