20
Coordinates from ORCA-job opt
  C   0.99680324562773      1.04549608141543     -0.00956808043699
  N   -0.41391839684606      1.06889088516406     -0.03348757038965
  C   1.68880580039015      1.71386379299818      1.00249731219757
  C   1.70298857757513      0.32693633203025     -0.97634971861496
  C   -1.19738199492243      0.90286278961970     -1.15257843867807
  C   -1.22695255007656      1.16364851506312      1.07341524709740
  C   -2.51954159480855      0.91445873781777     -0.75572406037171
  H   -0.75601588506701      0.86118038976092     -2.13475240237685
  C   -2.53792128738981      1.07106458919850      0.65129046806903
  H   -3.37120950799383      0.83047956620009     -1.41266922003249
  H   -3.40552467622087      1.10315132399723      1.29175513827758
  H   -0.80740034444295      1.22872887313012      2.06365477783335
  C   3.07898488897815      1.66886288072473      1.03812875888858
  H   1.14278863379396      2.29545798263163      1.73536673867748
  C   3.78805226233964      0.96660245543519      0.06617457265709
  H   3.60763818076001      2.19504717454437      1.82473980922875
  C   3.09393535368448      0.30070931947774     -0.94126167517489
  H   4.87082633271700      0.93797954085646      0.09411583259517
  H   3.63375398646804     -0.25928396957899     -1.69633357299791
  H   1.16578797543377     -0.23163626048652     -1.73301491644849
