20
Coordinates from ORCA-job opt
  C   0.99570506640550      1.01469529777169      0.00399295746742
  N   -0.41403772279393      1.04823166235478     -0.06077325282333
  C   1.69431381951583     -0.12035114951033     -0.41260354508621
  C   1.70055602368682      2.14029768422166      0.43712986863687
  C   -1.20139654870433      0.23444194053603     -0.84355519392236
  C   -1.22679148078261      1.81268048744675      0.74683433458155
  C   -2.52285757881943      0.50504700414461     -0.55138498144780
  H   -0.76493886987600     -0.40993645615560     -1.58833688264420
  C   -2.53881997700424      1.49657017546766      0.45909946342339
  H   -3.37545748397928      0.04490863627535     -1.02606888772234
  H   -3.40558420828758      1.92942806580767      0.93375698000727
  H   -0.80896800224154      2.46973137869204      1.49115883481780
  C   3.08548384159087     -0.13180880479301     -0.37539161461626
  H   1.15358784293796     -1.00481585813368     -0.72522071587186
  C   3.79048441754360      0.98140994155697      0.07519590478835
  H   3.61689896775249     -1.02133696417704     -0.69391513049690
  C   3.09069499673556      2.11439499519483      0.48389643384893
  H   4.87340179980085      0.96663423498338      0.10691615610109
  H   3.62678005950052      2.99286581642557      0.82450674287602
  H   1.16544303701892      3.04141191189067      0.71016352808257
