20
Coordinates from ORCA-job opt
  C   0.99567508083677      1.06728796788915      0.01870156147330
  N   -0.41628517814982      1.09617909363745     -0.00829427860903
  C   1.72738920705698      1.46030035457261     -1.10464730259013
  C   1.67030502628584      0.59980516364614      1.14914758060422
  C   -1.24058359155328      1.02055066241958      1.09240715318769
  C   -1.19220228390564      1.06413923597269     -1.14644289282867
  C   -2.54665659925728      0.96949299232588      0.65080405742415
  H   -0.84325427000014      1.08135518594386      2.09145980011249
  C   -2.51566340966533      0.98950384965076     -0.76436057029252
  H   -3.41977202373447      0.93258559403990      1.28346703956629
  H   -3.35883999295071      0.94573451045384     -1.43598924085995
  H   -0.74581626150132      1.04121329099040     -2.12587874360655
  C   3.11733360025089      1.40391528900515     -1.08604180231628
  H   1.21730446416779      1.84797076332063     -1.97725625864629
  C   3.79246411886714      0.95533511671788      0.04637875882469
  H   3.67172410465626      1.71850771915239     -1.96284519865052
  C   3.06115704793973      0.55778525323571      1.16257920939411
  H   4.87510792138600      0.91543775047872      0.05842392735090
  H   3.57106907020428      0.19427765670664      2.04744430129602
  H   1.11404496906631      0.24312254984061      2.00634289916608
