20
Coordinates from ORCA-job opt
  C   0.99807530910276      0.98604844137771      0.01159257977535
  N   -0.41310032209361      0.98648572463242     -0.01520772316350
  C   1.67557678653168      1.78698614619827      0.93147455483322
  C   1.70815562993058      0.19505686943771     -0.89212139384540
  C   -1.18553570971912      1.05605808415008     -1.15023763170538
  C   -1.22935728451827      0.95780870007766      1.09029144774105
  C   -2.51153244370542      1.06814815258160     -0.76145265689822
  H   -0.72369818880500      1.13864526170712     -2.12121836242467
  C   -2.53936519085159      0.99915611416314      0.65222764870824
  H   -3.35888661203225      1.13021889693228     -1.42639789618967
  H   -3.41285348966957      0.97105585704595      1.28487617769219
  H   -0.80804757456417      0.85953173737334      2.07813321583183
  C   3.06723187199236      1.78104239393567      0.95462222032280
  H   1.10972441149815      2.42117914307928      1.60435243738873
  C   3.78279367942866      0.99810012224017      0.05070622522241
  H   3.59232757917639      2.40381145553292      1.66983881953094
  C   3.09976492097879      0.21044049245483     -0.87406325529461
  H   4.86631564389128      1.00200977581946      0.06661782781823
  H   3.65009856022676     -0.40636951280418     -1.57532543810103
  H   1.16681042320157     -0.44091485593541     -1.58330779724252
