20
Coordinates from ORCA-job opt
  C   1.00102797864128      1.05404265335052      0.03252683727007
  N   -0.41569509508687      1.06905204402994      0.03229776078730
  C   1.68819267809085      0.73956609703022     -1.13904042840905
  C   1.69208839991544      1.31000961135114      1.21557696101769
  C   -1.21346553710585      0.15254702822109      0.67237721682113
  C   -1.19733960674268      1.91242348049809     -0.71771786657762
  C   -2.52755302575763      0.43247544812194      0.34375735782176
  H   -0.77236878787513     -0.61796655981257      1.28511180705377
  C   -2.51767667483219      1.54405860098264     -0.53162369366287
  H   -3.39079115613435     -0.11142481259815      0.69449920975041
  H   -3.37307085995560      2.03338156246617     -0.97081618269258
  H   -0.74540253645196      2.70830177737437     -1.28877893500645
  C   3.08011355679223      0.70877649148405     -1.12917757826048
  H   1.12572780051881      0.51947929179380     -2.03962866444433
  C   3.77882313626283      0.96622901733017      0.04927506052082
  H   3.61805044649680      0.46803037496915     -2.03895602125559
  C   3.08374091454461      1.26238159069617      1.22052661161685
  H   4.86213982931889      0.93495478917179      0.05498424095956
  H   3.62466438705344      1.46442682160421      2.13789160311426
  H   1.13329315230710      1.55375469193526      2.11231570357534
