20
Coordinates from ORCA-job opt
  C   0.99539318165364      1.05512311793250      0.01721866295819
  N   -0.41848565143776      1.07923813379958     -0.00625856615277
  C   1.72779679369055      1.36382472802507     -1.13251412446060
  C   1.67881717446860      0.68286209406146      1.17821809454395
  C   -1.24414168264752      0.89017024161115      1.08110542960397
  C   -1.20025289860221      1.18401499626346     -1.13690561839504
  C   -2.55082605674830      0.89739688064831      0.64128058001988
  H   -0.85300250665323      0.81893430324411      2.08079034897552
  C   -2.52283806475724      1.07801611662365     -0.76229794777677
  H   -3.42102553074363      0.78984361426907      1.26981892727501
  H   -3.36650231246903      1.12274571716124     -1.43319428564086
  H   -0.76652261405531      1.28692272753999     -2.11586902735130
  C   3.11817732919512      1.32017651951417     -1.11105746300134
  H   1.22397888583244      1.67151699824624     -2.03870892656628
  C   3.79900707532951      0.96165858065609      0.04898029748831
  H   3.66757077868418      1.56865319617658     -2.01188537051042
  C   3.06962888785189      0.64621732367129      1.19178527545795
  H   4.88179349759723      0.92885495590997      0.06220161561308
  H   3.58065405719991      0.35655545794627      2.10284372130180
  H   1.13527765661116      0.40177229669980      2.06984937661771
