20
Coordinates from ORCA-job opt
  C   1.00125704416025      1.03968009062717      0.01388581732564
  N   -0.41536035378828      1.06288134673926      0.02176689445229
  C   1.71124762771897      2.15196594930563      0.46305231317960
  C   1.66992237710611     -0.10995230160896     -0.40391272730925
  C   -1.19726538461173      1.82697563111196     -0.80941692651710
  C   -1.21422152937759      0.22760215290890      0.76267506356936
  C   -2.51839382361565      1.49027934698616     -0.57606265125754
  H   -0.74178550453995      2.52372372968354     -1.49557893068028
  C   -2.52922637006900      0.48273808416419      0.41728685145253
  H   -3.37276079264241      1.92217795274856     -1.07358824771113
  H   -3.39456544910567      0.00170868659734      0.84605157094689
  H   -0.77628375635789     -0.44629964832631      1.48226790500190
  C   3.10330078857039      2.12099177287935      0.46646461713118
  H   1.16607666775626      3.02395048232437      0.80690969768755
  C   3.77957196233511      0.97644200397059      0.04746923482978
  H   3.65882454404414      2.98530660080657      0.81191751971261
  C   3.06186670197235     -0.13819093867318     -0.38322661218268
  H   4.86304061129670      0.95256893329594      0.05798992189923
  H   3.58544246151302     -1.02907104362986     -0.71067780488377
  H   1.09381117763485     -0.96097983191122     -0.74987450664680
