20
Coordinates from ORCA-job opt
  C   1.00084414282896      1.03406659208389     -0.00682684613673
  N   -0.41318912940630      1.04916154093035     -0.06959088094574
  C   1.72794884733274      2.06804538424866     -0.59510482577681
  C   1.65390887713851     -0.03475421144014      0.60554371897847
  C   -1.22017052359512      1.98684172120825      0.52759434951726
  C   -1.19053730568543      0.06026638986642     -0.62041731802460
  C   -2.53381132936109      1.60098246903884      0.33315348474305
  H   -0.78554570130476      2.82493066580513      1.04951262584469
  C   -2.51520995866969      0.38700629283925     -0.39385468221375
  H   -3.40279408257833      2.13531730426779      0.68438462601754
  H   -3.36763130367442     -0.18322207572233     -0.72889653698451
  H   -0.73193474101526     -0.76125708163794     -1.14812390181683
  C   3.11899023831439      2.04440328874682     -0.54260521068086
  H   1.19696238816972      2.87330330107373     -1.09052898918551
  C   3.77940885564524      0.98048117940460      0.06964860561342
  H   3.68686349820765      2.84864755857042     -0.99616746764218
  C   3.04562950123559     -0.05904967750904      0.63863948072124
  H   4.86250402182962      0.96080106753920      0.10198183677419
  H   3.55620205608928     -0.88682555498365      1.11732928060991
  H   1.06606364849869     -0.82464615433026      1.05972865058776
