20
Coordinates from ORCA-job opt
  C   1.00163049561484      1.03772231460435     -0.00731684735106
  N   -0.41375376498370      1.05420466392578     -0.06915381122327
  C   1.73050982791325      2.04941522099837     -0.63039631777670
  C   1.65152927202309     -0.01178427767851      0.64036434813273
  C   -1.22197472383192      1.95693915667961      0.57731769891913
  C   -1.18871066903298      0.09295286830178     -0.66936240248633
  C   -2.53514502622421      1.57820802721637      0.36435500941415
  H   -0.78869885663903      2.77072797262683      1.13745852097206
  C   -2.51423517714038      0.40341623678493     -0.42394648954797
  H   -3.40510416668769      2.09221969554162      0.74247490994828
  H   -3.36548381628139     -0.15193140173496     -0.78589322790976
  H   -0.72787464209264     -0.70156564705312     -1.23515138727856
  C   3.12171711621925      2.02310677211580     -0.57906501753097
  H   1.20054445489326      2.84030952491211     -1.14946198522651
  C   3.77919113158936      0.97884251650129      0.06911208031517
  H   3.69179175922532      2.80993284983765     -1.05958996628471
  C   3.04324339356100     -0.03861903781839      0.67422331224478
  H   4.86227844607641      0.95713561575733      0.10129916244369
  H   3.55214323935258     -0.85120431494345      1.17994004672456
  H   1.06090170644558     -0.78552975657537      1.11819136350129
