20
Coordinates from ORCA-job opt
  C   0.99982085361664      1.05195478742822      0.02708986181270
  N   -0.41426307316835      1.06769425753116      0.02193499904976
  C   1.69392123610527      0.81551016751823     -1.15914732335708
  C   1.68649041619782      1.23206720720765      1.22720095691919
  C   -1.21580192311324      0.22636248695990      0.75525275804438
  C   -1.19539056867321      1.83821367236269     -0.80426418154548
  C   -2.52889621429244      0.47923437395684      0.40449854005809
  H   -0.77697952577965     -0.48937363486878      1.43252631044169
  C   -2.51639298414519      1.49937978535510     -0.57668319714625
  H   -3.39323748163304     -0.02416790588145      0.80883320406489
  H   -3.37058650500251      1.94928014830183     -1.05827507922246
  H   -0.74328624615577      2.57867368480597     -1.44534744874037
  C   3.08566085310312      0.78745003904426     -1.14488438392470
  H   1.13720192234796      0.64761665161876     -2.07433198002018
  C   3.77932541862901      0.96696202026324      0.05073488293740
  H   3.62761058538922      0.60660864637217     -2.06609700064284
  C   3.07776644151164      1.18403416044925      1.23537452238636
  H   4.86258528494827      0.93666503482739      0.05939212287152
  H   3.61384802959333      1.32749490140026      2.16652457609832
  H   1.12510248052112      1.42284051534731      2.13506785991506
