20
Coordinates from ORCA-job opt
  C   0.99771772939343      1.00110634547635      0.00602401123629
  N   -0.41295835935398      1.00716394020176     -0.01860220785601
  C   1.71376327675572      1.58438094086500     -1.04013773637499
  C   1.67160005403695      0.41372592710289      1.07755835116048
  C   -1.22665637535283      1.22493647231345      1.06813833691024
  C   -1.19006663288309      0.80069667017003     -1.13394362622583
  C   -2.53783539672357      1.15922194246063      0.63778220512275
  H   -0.80265946856790      1.45906022044729      2.03147486942904
  C   -2.51481714640523      0.88427940179135     -0.75083004900359
  H   -3.40882075252986      1.30481586347529      1.25759840632812
  H   -3.36492872833231      0.75016839051366     -1.40145223402053
  H   -0.73503367437694      0.56111029383043     -2.08165201480991
  C   3.10519624060016      1.56849413776553     -1.01532688461885
  H   1.17868025623398      2.06655779998885     -1.85010405203613
  C   3.78401886624115      0.99142282214677      0.05612370614228
  H   3.65860684646464      2.02353622306970     -1.82881844075755
  C   3.06311599307721      0.41946425886721      1.10251932967596
  H   4.86744629160544      0.98748870884055      0.07552532581190
  H   3.58372584228892     -0.03903408361128      1.93549016251553
  H   1.10440613782809     -0.06409727571546      1.86803154137078
