19
Coordinates from ORCA-job opt
  C   -0.43319314728894     -0.03803708599874      0.03477582555615
  C   1.02453439172812     -0.08214829046141      0.02009588543243
  C   -1.15958971992303     -1.19945943036089     -0.25204446861107
  C   -1.11836932255844      1.15602398288666      0.28885156158024
  N   1.79526406147250      0.94966057500318     -0.43666607867024
  N   1.78629153803077     -1.06781765574046      0.48254020595691
  C   3.10891320139370      0.60038583242871     -0.27663722186647
  H   1.44917731746255      1.78635493711982     -0.88181854168217
  C   3.07706295919067     -0.65265390520648      0.29679980077685
  H   3.91871993530004      1.24401641296392     -0.57776813874975
  H   3.91481088106753     -1.26632535383192      0.58847907757236
  C   -2.54953961336305     -1.16637690794394     -0.26901366530487
  H   -0.61780499130778     -2.11750413637409     -0.44932491604400
  C   -3.22927160990956      0.02590582311439     -0.01941684804507
  H   -3.10575255845092     -2.07091572323511     -0.48836275884116
  C   -2.51009519401574      1.18576492389753      0.26057928979055
  H   -4.31284541207429      0.04919194793196     -0.03729896811717
  H   -3.03294005852489      2.11269233671211      0.46824734779351
  H   -0.56407965822925      2.05337271709476      0.54623861147295
