19
Coordinates from ORCA-job opt
  C   -0.43872403343750     -0.02432835508154      0.06301530871112
  C   1.03111291692401     -0.04287224803828      0.08933550507597
  C   -1.15588083257192     -1.20755165776912     -0.13869590925005
  C   -1.12976298341462      1.18233885604620      0.21146708301434
  N   1.78036189438415      0.26417448638961     -1.01095936769514
  N   1.80991230020939     -0.30883759775119      1.12969870754679
  C   3.10212071680956      0.18288871290547     -0.66076019301413
  H   1.41118963383051      0.49778631303327     -1.92053532022155
  C   3.09489895134074     -0.17361529320318      0.66918917467527
  H   3.89853141012023      0.37587565357929     -1.36010499441249
  H   3.94397225990528     -0.33644031153016      1.31407435478457
  C   -2.54741374789708     -1.18445003270161     -0.18237384684977
  H   -0.61590147759533     -2.14209867624191     -0.24631489135700
  C   -3.23155275970744      0.02063215200343     -0.03256725943082
  H   -3.09784692359704     -2.10627888205436     -0.33316531971732
  C   -2.52149388918106      1.20328172025501      0.16569023369894
  H   -4.31499909110092      0.03732600463368     -0.06556013105070
  H   -3.05142086952984      2.14108058308457      0.28904505267089
  H   -0.57085047549110      2.09718657244082      0.37806281282106
