19
Coordinates from ORCA-job opt
  C   0.99875787312751      0.87953289168975      0.09172975073307
  C   -0.45492288701668      0.80442884044338      0.15389916452490
  C   1.65811317517356      1.67625132743808     -0.85237302211524
  C   1.75570446695881      0.13895962260231      1.00809306535552
  N   -1.27996734392935      1.17793427373939     -0.86953368845371
  N   -1.16570922066566      0.36699235794387      1.18918791553834
  C   -2.57222832529662      0.96677808273374     -0.47234505146657
  H   -0.98654056642809      1.49409884376485     -1.78088207189217
  C   -2.47462573957319      0.46633811710445      0.80854307117062
  H   -3.41379245062636      1.17954190399828     -1.11048420966149
  H   -3.27851415807270      0.17989861960928      1.46815362547926
  C   3.04880714081867      1.72082364155402     -0.88770272213752
  H   1.09239577693865      2.29265462834031     -1.54410595647936
  C   3.79743369615424      0.97960802252023      0.02366572380552
  H   3.54728324328540      2.34438651684703     -1.62137910974291
  C   3.14401142787098      0.19387886789236      0.97320239481606
  H   4.88032316368891      1.01797229524222     -0.00225702590768
  H   3.72056611144214     -0.38318668149952      1.68753327684769
  H   1.23430661614976     -0.46899417196403      1.73815386958566
