19
Coordinates from ORCA-job opt
  C   0.99999635378974      0.84722966549054      0.06836507787659
  C   -0.45223101629103      0.73661606915361      0.10730022762218
  C   1.66690034539274      1.44865736327510     -1.00609805509178
  C   1.74897579429824      0.31366198544000      1.12453855296876
  N   -1.29328546652570      1.49603947318171     -0.65677225962632
  N   -1.14662359190445     -0.09686036601988      0.87634127568815
  C   -2.57923890407299      1.13528566325055     -0.35990962678004
  H   -1.01685318552421      2.23917872749500     -1.27963097217733
  C   -2.46146422361449      0.14368039794089      0.59054178543860
  H   -3.43135830289800      1.59705684959190     -0.83046131600128
  H   -3.25454674688699     -0.40476743255607      1.07388611107292
  C   3.05662671437753      1.52393700282361     -1.01884328238940
  H   1.10958537998480      1.83014118961935     -1.85601481779250
  C   3.79727638757439      0.99070370165315      0.03357569888000
  H   3.56151193881668      1.98767810951827     -1.85887643295075
  C   3.13679778233905      0.38440224278648      1.10223917322328
  H   4.87974369792969      1.04464529174185      0.01985191197576
  H   3.70747204822282     -0.03359443574624      1.92402810175882
  H   1.22211199499217     -0.15579349863983      1.94704084630435
