19
Coordinates from ORCA-job opt
  C   1.00110578389140      0.81798488277554     -0.06482946178605
  C   -0.45243296636828      0.73851338183214     -0.12421504451018
  C   1.74397553425413      0.51960461709172     -1.21387040580849
  C   1.67292911037477      1.20712222268660      1.10062051176347
  N   -1.28387020242614      1.34525697135938      0.77487885526382
  N   -1.15753983587113      0.08456103169217     -1.04263551792677
  C   -2.57443042880366      1.07247203084775      0.41162992333899
  H   -0.99658526586721      1.94768520466360      1.53068292040143
  C   -2.46899854886249      0.28600050064000     -0.71583115606475
  H   -3.42091813484031      1.44819325981100      0.96210887456036
  H   -3.26922353904309     -0.14268255757168     -1.29837885172493
  C   3.12987912710814      0.62176817952065     -1.19559591748090
  H   1.21329984956594      0.21459509298576     -2.10825482033328
  C   3.79405026017973      1.02964352243368     -0.03869618556642
  H   3.69568823674668      0.39114119873489     -2.09138247043603
  C   3.06038260316285      1.31539361678202      1.11048934185059
  H   4.87462896120079      1.11400780790356     -0.02986044170616
  H   3.56918622557508      1.61708548368094      2.01920862388923
  H   1.12027223002281      1.39955355213029      2.01503122227607
