19
Coordinates from ORCA-job opt
  C   -0.43281540004127     -0.03167213627283     -0.03042306817023
  C   1.02421769291597     -0.07572356899844     -0.02034883808433
  C   -1.15563585932903     -1.20253458087587      0.22641039627359
  C   -1.12266806403392      1.16469110247014     -0.26041483276161
  N   1.80114176657592      0.97306441221392      0.38437100211813
  N   1.78079627368065     -1.08958836803077     -0.42774982230989
  C   3.11261682511151      0.60785000633976      0.24426762873680
  H   1.46152888339204      1.83341096151505      0.78715046235175
  C   3.07363939207226     -0.67326184946240     -0.26309067174429
  H   3.92605131364858      1.26168235029963      0.51178488480642
  H   3.90788454993559     -1.30642215723999     -0.52121088445805
  C   -2.54553359749818     -1.17465960787005      0.24263150591879
  H   -0.61000463301885     -2.12246628563221      0.40277675509507
  C   -3.22985839730460      0.02038480253926      0.02001341274470
  H   -3.09845473343736     -2.08635366369947      0.43958388899623
  C   -2.51440176918970      1.18871028038778     -0.23284372182681
  H   -4.31351132089437      0.03931755439006      0.03731509957950
  H   -3.04017403204262      2.11825083130646     -0.42046986534095
  H   -0.57379189054261      2.07042391661998     -0.49944433192480
