19
Coordinates from ORCA-job opt
  C   0.99897325478207      0.87481522736260      0.08826948422324
  C   -0.45472687650111      0.80378568902206      0.15264828445610
  C   1.65914404018526      1.67171631563094     -0.85516343587256
  C   1.75518556675261      0.13444854148712      1.00550443472505
  N   -1.28044818586608      1.17951535199420     -0.86938988131973
  N   -1.16589752570611      0.37010577849607      1.18951499766548
  C   -2.57268824732506      0.97326246098737     -0.47037191260131
  H   -0.98833719743587      1.49229627562870     -1.78234399125759
  C   -2.47481890804908      0.47399494741466      0.81108796407408
  H   -3.41390642184296      1.18905717916812     -1.10795135865735
  H   -3.27767512903045      0.19076909964083      1.47337164182612
  C   3.04974478235650      1.71766887716827     -0.88819466068173
  H   1.09328527862061      2.28761315773380     -1.54724256541706
  C   3.79756520674326      0.97785083327887      0.02497021424808
  H   3.54914655226357      2.34139533139672     -1.62113499566172
  C   3.14344746926801      0.19078729880212      0.97285574900244
  H   4.88046428219804      1.01786500050329      0.00122478655877
  H   3.71958399823732     -0.38548139075190      1.68820253284120
  H   1.23335806034947     -0.47356697496388      1.73524071184848
