19
Coordinates from ORCA-job opt
  C   0.99945115738882      0.86402088061061      0.07863873569875
  C   -0.45437017808311      0.79775977584974      0.14772840158008
  C   1.65914274318967      1.66531031770896     -0.86140492019858
  C   1.75590602229093      0.12747095184890      0.99865707807972
  N   -1.28255132397130      1.17678369879371     -0.87118587284518
  N   -1.16256856479482      0.36571501574700      1.18705639123130
  C   -2.57396902244436      0.97396448158779     -0.46720986172131
  H   -0.99111310327779      1.48579375762110     -1.78565084497706
  C   -2.47267549910363      0.47401303703247      0.81360952471419
  H   -3.41782950395354      1.19289480743257     -1.10021022438026
  H   -3.27487384127411      0.19438336500851      1.47822900718456
  C   3.04952417301051      1.72158039783388     -0.88647755466049
  H   1.09303330628480      2.27836054678782     -1.55582091397771
  C   3.79754645050583      0.98887447517824      0.03229780405766
  H   3.54836158265920      2.34984662503118     -1.61590469019040
  C   3.14386443777235      0.19418326977776      0.97409984613078
  H   4.88018488929865      1.03824865056400      0.01585821964165
  H   3.72011573257898     -0.37811129998843      1.69253006541352
  H   1.23421754192291     -0.48319275442582      1.72625780921880
