19
Coordinates from ORCA-job opt
  C   0.99447407309793      0.99865541568151      0.03260936498865
  C   -0.46233209634823      1.01036697030578      0.04590638785419
  C   1.68130293480809      2.21257908642243     -0.09343456586649
  C   1.72538963769036     -0.19044818221353      0.14487523352271
  N   -1.23425091271330     -0.09247319253325     -0.18932033047000
  N   -1.22780792105856      2.07263701156155      0.27883761283319
  C   -2.54760145606095      0.28200870939180     -0.10752187696865
  H   -0.89623602864139     -1.00718436208664     -0.44572629409490
  C   -2.51656772149939      1.62861462310645      0.18658324535014
  H   -3.35639259353997     -0.41292537893647     -0.26132475256581
  H   -3.35458560655978      2.29060522742264      0.33835519819896
  C   3.07073410549190      2.23037637461932     -0.11241183356978
  H   1.10514423906013      3.12705097475420     -0.17319675660249
  C   3.79518568012114      1.04247651648541     -0.01339589485135
  H   3.59256126946941      3.17584186019223     -0.21040474851270
  C   3.11663408811388     -0.16707823701329      0.11714855601931
  H   4.87879734945970      1.05991373051133     -0.03170480395963
  H   3.67090671056584     -1.09458578469608      0.20777291543145
  H   1.21604424854320     -1.13853136297537      0.28745234326318
