19
Coordinates from ORCA-job opt
  C   -0.43363268143571     -0.04465717569245     -0.03913949401917
  C   1.02501902622593     -0.08897579625980     -0.02078061993222
  C   -1.16391991504156     -1.19614747834547      0.27559460247365
  C   -1.11396335432097      1.14711037560399     -0.31544793922579
  N   1.78942207492704      0.92214088404972      0.48968453203650
  N   1.79214349658948     -1.04213713237959     -0.53849784959066
  C   3.10524766942791      0.59069092619355      0.30997359162856
  H   1.43685435005521      1.73255408471616      0.97661569500443
  C   3.08072565268070     -0.62940785220229     -0.33067049821226
  H   3.91128316270437      1.22189283340446      0.64554063205463
  H   3.92202318720322     -1.22096203219261     -0.65590286135111
  C   -2.55390240236491     -1.15748211118081      0.29350635806732
  H   -0.62628304955420     -2.11233706034749      0.49228130911467
  C   -3.22879612687057      0.03194519820334      0.01877652718430
  H   -3.11355913290420     -2.05456071383567      0.53369233519476
  C   -2.50564254267519      1.18295425917234     -0.28648511683232
  H   -4.31226493328104      0.05986088442855      0.03730274633784
  H   -3.02529241403037      2.10737377363740     -0.51253033867210
  H   -0.55429906733514      2.03626213302668     -0.58901161126104
