19
Coordinates from ORCA-job opt
  C   0.99431774039333      1.00130963139739      0.05813076676754
  C   -0.46256303073003      1.01183363594323      0.05967245634935
  C   1.68099234502500      2.21428937230119     -0.07727508158432
  C   1.72484656175249     -0.18873721629153      0.16380133459380
  N   -1.23057192092283     -0.09117784978884     -0.18796490767814
  N   -1.23126414242013      2.07188862691865      0.29142485660914
  C   -2.54509130394446      0.28163914900890     -0.11759607290487
  H   -0.88714665248398     -1.00282862110152     -0.44804961469133
  C   -2.51873230497907      1.62651580698221      0.18478875527130
  H   -3.35189243941501     -0.41256129959430     -0.28460679032792
  H   -3.35933199963813      2.28607940843297      0.33263549283844
  C   3.07010014479804      2.22971164270935     -0.11785007168467
  H   1.10499503649964      3.12920194247253     -0.15298880471326
  C   3.79364519802230      1.04009294520862     -0.03304281332686
  H   3.59221954822221      3.17391424529078     -0.22571515348056
  C   3.11551947719535     -0.16777480199326      0.11444037980663
  H   4.87677232297127      1.05534414020990     -0.07110023673464
  H   3.67003181860602     -1.09579349118162      0.19790927161294
  H   1.21455460104801     -1.13504726692464      0.31448523327746
