19
Coordinates from ORCA-job opt
  C   1.00051615221389      0.83475821010666      0.06987343014528
  C   -0.45263503927264      0.74730701451771      0.12698738882144
  C   1.74377661211740      0.52971333985720      1.21691110634116
  C   1.67258142729309      1.22003111238596     -1.09666674113855
  N   -1.28637847199724      1.34839016718620     -0.77369302873159
  N   -1.15517891638243      0.08971857342197      1.04487357859900
  C   -2.57584669110986      1.06664424387689     -0.41314700956824
  H   -1.00273543969751      1.95085072241182     -1.53083281947994
  C   -2.46739103060185      0.28255926068746      0.71569078666595
  H   -3.42341922714183      1.43544234309262     -0.96660393940198
  H   -3.26575186707673     -0.15054200159948      1.29747266152450
  C   3.13058854118400      0.61761235427083      1.19441813207642
  H   1.21291956314566      0.22699886671566      2.11193402412247
  C   3.79561050056138      1.01667589684989      0.03493077405878
  H   3.69657681644569      0.38017728764407      2.08828752566263
  C   3.06110288534877      1.31411874244649     -1.11072829426913
  H   4.87707332729870      1.08795558910769      0.02223080817122
  H   3.56988823545021      1.61123967515687     -2.02093351891944
  H   1.12010062222128      1.41824860186349     -2.00990586467999
