19
Coordinates from ORCA-job opt
  C   -0.43250496586854     -0.02602079675705     -0.02615292170062
  C   1.02405144868227     -0.06994560522106     -0.02102090370590
  C   -1.15211544434946     -1.20558840455692      0.19897519217686
  C   -1.12684925880423      1.17250446049287     -0.23050720679681
  N   1.80664683106663      0.99314579311856      0.33230862761211
  N   1.77606791860466     -1.10798047199865     -0.37308049206458
  C   3.11610511578772      0.61416597285578      0.21255678594828
  H   1.47332674680035      1.87491404160686      0.69129861158013
  C   3.07070315304377     -0.69098349513439     -0.22889470417835
  H   3.93274955152270      1.27678741169250      0.44660030650314
  H   3.90171291006976     -1.34111385661655     -0.45301556525982
  C   -2.54195455235442     -1.18259337481166      0.21437845585364
  H   -0.60302775469864     -2.12732001602216      0.35337763244326
  C   -3.23061118839767      0.01491405280378      0.02004562673154
  H   -3.09169295597709     -2.10101496040578      0.38761639065770
  C   -2.51857011788772      1.19114336533651     -0.20397086742675
  H   -4.31432555734785      0.02980207862424      0.03659081460914
  H   -3.04700504565431      2.12324767674764     -0.37017509256159
  H   -0.58344383423793      2.08672112824548     -0.44882969042137
