19
Coordinates from ORCA-job opt
  C   1.00042527130310      0.83818404258391     -0.07115279288838
  C   -0.45262871617564      0.74854465449981     -0.12738841140242
  C   1.74383759836045      0.53481915936874     -1.21852056153657
  C   1.67245953075990      1.21968979460108      1.09664953086544
  N   -1.28674679605267      1.35027605477849      0.77245720381883
  N   -1.15510453952707      0.08806361029133     -1.04329446059401
  C   -2.57603157244514      1.06640448274108      0.41336127319295
  H   -1.00343094378266      1.95599536380298      1.52716474691717
  C   -2.46710816901400      0.27979051916947     -0.71369792690064
  H   -3.42372464335456      1.43509187296470      0.96672563154175
  H   -3.26512162455356     -0.15586624456116     -1.29413894898985
  C   3.13073864734620      0.61990913153882     -1.19483937819261
  H   1.21310716267623      0.23457402290727     -2.11449580036936
  C   3.79583559287655      1.01413254181924     -0.03380355072982
  H   3.69690559595755      0.38319810199050     -2.08883161441172
  C   3.06109145482226      1.31099961089619      1.11185439245220
  H   4.87747646319956      1.08284069485614     -0.02011580826914
  H   3.56985357773682      1.60507363084250      2.02310655268063
  H   1.11956510986667      1.41617895490889      2.01006092281556
