19
Coordinates from ORCA-job opt
  C   -0.43251060267178     -0.02603939754425      0.02614340625373
  C   1.02404591135771     -0.06994707286329      0.02100192177457
  C   -1.15211317026253     -1.20560792424804     -0.19899858384208
  C   -1.12686513432053      1.17247602547307      0.23052341774103
  N   1.80662647414466      0.99316206556404     -0.33230623420994
  N   1.77607810508147     -1.10797952762733      0.37303658823117
  C   3.11609059123719      0.61419325699831     -0.21257764404557
  H   1.47330497544303      1.87492836057123     -0.69130004380439
  C   3.07070754435504     -0.69096444566140      0.22885074144544
  H   3.93272242009585      1.27683890053961     -0.44659710404300
  H   3.90172367528704     -1.34109383005798      0.45295103224162
  C   -2.54195373850612     -1.18262598125988     -0.21439017102978
  H   -0.60302964767319     -2.12733830782218     -0.35342317714650
  C   -3.23062037808067      0.01487046217107     -0.02003112571530
  H   -3.09167700578411     -2.10105437307194     -0.38764047440965
  C   -2.51858608631823      1.19110217720273      0.20399873453038
  H   -4.31433498494481      0.02975524192862     -0.03656497930240
  H   -3.04703036505078      2.12319764946417      0.37022351641577
  H   -0.58346858338923      2.08669572024344      0.44885517891490
