19
Coordinates from ORCA-job opt
  C   0.99966199553043      0.85843282254209      0.07411209757794
  C   -0.45416288844541      0.79538766032819      0.14585837123686
  C   1.65936010933503      1.66099384348257     -0.86484380033612
  C   1.75600852310095      0.12356870911686      0.99560301381437
  N   -1.28322419232014      1.17580879172906     -0.87186255210516
  N   -1.16145696965734      0.36547739977729      1.18667455803787
  C   -2.57438901412098      0.97655983128581     -0.46532967235130
  H   -0.99300167501436      1.48484959180240     -1.78668980416960
  C   -2.47214958660485      0.47691151775278      0.81549616885962
  H   -3.41880700258386      1.19770542854832     -1.09682655255031
  H   -3.27375051658140      0.19950794385197      1.48173663315010
  C   3.04968576165064      1.72127613186594     -0.88645226212704
  H   1.09353214353625      2.27283825959303     -1.56052964119285
  C   3.79750225010699      0.99193252959651      0.03514053464212
  H   3.54845047076828      2.35109138102220     -1.61458534928570
  C   3.14384950491002      0.19438343228799      0.97456141351377
  H   4.88000149317298      1.04515438191172      0.02194270376140
  H   3.71994035922834     -0.37606545200677      1.69457705254865
  H   1.23434923398842     -0.48791520448796      1.72251708697538
