19
Coordinates from ORCA-job opt
  C   1.00123132819025      0.81247191956977      0.06360076699151
  C   -0.45238165546843      0.73601294290111      0.12381463975590
  C   1.74419555959512      0.51391116747179      1.21258768044019
  C   1.67284121360844      1.20492285268039     -1.10079657642030
  N   -1.28274736989273      1.34509936317455     -0.77463783058524
  N   -1.15866553922095      0.08269945350652      1.04192005035066
  C   -2.57374290567385      1.07435171038094     -0.41158633638405
  H   -0.99556459053172      1.94782685306070     -1.53023582168107
  C   -2.47000972715275      0.28715860693424      0.71545903695512
  H   -3.41918785290301      1.45158037233448     -0.96264940158099
  H   -3.27071108733868     -0.13978971818470      1.29856311779869
  C   3.12978049786760      0.62067726273046      1.19574613155514
  H   1.21382700169017      0.20644481759704      2.10630630539391
  C   3.79357325332693      1.03364412784205      0.04040736721089
  H   3.69536346106956      0.39069450844804      2.09182694564052
  C   3.06008251096258      1.31778315228685     -1.10923508718282
  H   4.87383229565148      1.12210192311452      0.03289525391191
  H   3.56846705305848      1.62238155811562     -2.01720316935946
  H   1.12121555316151      1.39792812603563     -2.01568407281050
