19
Coordinates from ORCA-job opt
  C   1.00036685614583      0.83647499907877      0.06287520098247
  C   -0.45213043342221      0.73229242791795      0.10548693516568
  C   1.66650864417046      1.43723344886639     -1.01243437964107
  C   1.74993467152309      0.30815078240495      1.12131979958998
  N   -1.29177080596849      1.49817244384602     -0.65351984929306
  N   -1.14904029519499     -0.10080574854430      0.87292357073719
  C   -2.57866797449055      1.14409479540791     -0.35360128938425
  H   -1.01377656447868      2.24639615427664     -1.26970338864648
  C   -2.46298947802984      0.14771386525852      0.59222800449470
  H   -3.42961406418378      1.61220657937631     -0.82003425301790
  H   -3.25702078177585     -0.39904638296232      1.07613452831139
  C   3.05576096021433      1.51952410516733     -1.02244501017214
  H   1.10841401428603      1.81306039656679     -1.86446421543699
  C   3.79685341252861      0.99479995515876      0.03390307135409
  H   3.56005768053378      1.98411698464094     -1.86245811621472
  C   3.13730477885991      0.38599848213950      1.10164019262402
  H   4.87903723624075      1.05554724248497      0.02299717856106
  H   3.70843123026883     -0.02716655878435      1.92565047142184
  H   1.22374091277277     -0.16086397230079      1.94460254856419
