19
Coordinates from ORCA-job opt
  C   1.00100365002506      0.81927963481493     -0.06535985044645
  C   -0.45246580786734      0.73955621581423     -0.12480926992310
  C   1.74409385911999      0.52012411719350     -1.21409951779361
  C   1.67268079442819      1.20799748846584      1.10026204397976
  N   -1.28390714157670      1.34565716721586      0.77466690689316
  N   -1.15738526081886      0.08556086076596     -1.04341993055646
  C   -2.57445562878326      1.07216696832277      0.41166613633151
  H   -0.99773922679029      1.94789580556133      1.53103079483040
  C   -2.46911681976193      0.28639354875078     -0.71624276063951
  H   -3.42070238801974      1.44681509781087      0.96324250181602
  H   -3.26909123149440     -0.14218147031866     -1.29913930231139
  C   3.13010059792133      0.62104573572281     -1.19529943042507
  H   1.21357192778445      0.21528079507945     -2.10860502920379
  C   3.79424374250398      1.02835435489602     -0.03813210237198
  H   3.69588442805033      0.38994476637291     -2.09095618848917
  C   3.06034585689166      1.31511581283763      1.11062666958578
  H   4.87489527927847      1.11151800067230     -0.02882321330586
  H   3.56886921861270      1.61619246980214      2.01968167057060
  H   1.12057515049634      1.40118263021935      2.01481087145918
