19
Coordinates from ORCA-job opt
  C   0.99437444931221      0.99994044802838      0.04499990634174
  C   -0.46246103456984      1.01117719978213      0.05227813556445
  C   1.68115869616965      2.21338364081164     -0.08572242580388
  C   1.72496619314393     -0.18966270940793      0.15456086453454
  N   -1.23235573324756     -0.09171821632005     -0.18973140858966
  N   -1.22938423118441      2.07227655445211      0.28547269103056
  C   -2.54635093292628      0.28201771791475     -0.11332766225466
  H   -0.89172757557593     -1.00453881435481     -0.44936881232513
  C   -2.51769640954064      1.62755969977917      0.18586614842125
  H   -3.35411821432742     -0.41254407889604     -0.27397516895945
  H   -3.35702117167602      2.28812180243157      0.33629414384184
  C   3.07052969922457      2.22998325717424     -0.11479585253946
  H   1.10506193557453      3.12799900335562     -0.16389947003165
  C   3.79447544488409      1.04117493651866     -0.02223212354709
  H   3.59257328020511      3.17474800972761     -0.21783665433895
  C   3.11604157313439     -0.16752825741994      0.11664003715347
  H   4.87788821665250      1.05750573661301     -0.04976722969421
  H   3.67039476449179     -1.09522074313737      0.20441755112628
  H   1.21505205025534     -1.13677518705277      0.30122733007001
