19
Coordinates from ORCA-job opt
  C   -0.43602108213360     -0.06348059136056      0.05587786097592
  C   1.02842160388417     -0.10630462209214      0.03985330161953
  C   -1.17615093708659     -1.18446505298547     -0.33393517180370
  C   -1.10395563545714      1.11984635333977      0.38987188292805
  N   1.77200411857538      0.75132566112376     -0.72067587842254
  N   1.81320587795404     -0.86882147271543      0.79151261132924
  C   3.09478150365819      0.50872802308973     -0.46333571655142
  H   1.39904465372297      1.41071491430548     -1.38742723809648
  C   3.09436758223844     -0.49834981486020      0.47674713989596
  H   3.88779136439615      1.04648145576179     -0.95589823843920
  H   3.94680624317774     -0.96606848294476      0.94371959729678
  C   -2.56635506297328     -1.12973813902760     -0.35996230058132
  H   -0.65069679232724     -2.09524445761721     -0.59912257444809
  C   -3.22831532699480      0.04938483835275     -0.01955107566201
  H   -3.13457943666281     -2.00435647026448     -0.65617665825076
  C   -2.49523204973732      1.17336534900082      0.35542731924571
  H   -4.31132935344322      0.09067240177715     -0.04298293750061
  H   -3.00660041485315      2.08987319496255      0.62774720965913
  H   -0.52998785593793      1.98668091215406      0.70176486680581
