19
Coordinates from ORCA-job opt
  C   1.00078805110592      0.82623766693211     -0.06725808165774
  C   -0.45255528594575      0.74324240291276     -0.12577361223156
  C   1.74392862854492      0.52494323799729     -1.21537678625158
  C   1.67268721634122      1.21280460000269      1.09895531674843
  N   -1.28509885316175      1.34643607027134      0.77464520535619
  N   -1.15639587649460      0.08815514623646     -1.04442702642513
  C   -2.57515973688881      1.06986228519633      0.41224386740356
  H   -0.99988962375343      1.94931361616447      1.53087202705883
  C   -2.46828868938296      0.28517077773344     -0.71631924306503
  H   -3.42211267073084      1.44168214104164      0.96463763813162
  H   -3.26751919602359     -0.14533844295098     -1.29883765484919
  C   3.13031855220142      0.61983018111297     -1.19485466812033
  H   1.21322546354418      0.22155635026093     -2.11027123025951
  C   3.79490798250491      1.02278566785806     -0.03645141728503
  H   3.69622323945812      0.38623320778318     -2.08979179594925
  C   3.06072877570757      1.31387342333858      1.11106060950097
  H   4.87595169593729      1.10047287674208     -0.02556885073766
  H   3.56945035040589      1.61274795836282      2.02073359725395
  H   1.12021197663027      1.40789083300383      2.01288410537847
