19
Coordinates from ORCA-job opt
  C   -0.43632579168278      0.03706894424924      0.02258693078700
  C   1.02721359204118      0.09885495816809     -0.00584705129561
  C   -1.10261026705535     -1.13128471885278     -0.36336518926462
  C   -1.17883655375029      1.17269698901398      0.36120809667426
  N   1.80997225679055     -0.75209293700098      0.72216443438632
  N   1.77324346900516      0.87505583624781     -0.78257749272483
  C   3.11891211338743     -0.49192806584835      0.41583705134375
  H   1.47143913711386     -1.41973372569064      1.39895685326514
  C   3.06996534811351      0.51933381708092     -0.51842946226239
  H   3.93681777234687     -1.02203053347063      0.87483033567653
  H   3.89797121231214      0.99991327807664     -1.01534155977292
  C   -2.49451015245535     -1.17425621301331     -0.37091061359779
  H   -0.52609111672328     -1.99830093666590     -0.66994213620902
  C   -3.22994414274287     -0.04525913676763     -0.01583195923304
  H   -3.00445027799520     -2.08248572553665     -0.67208628703157
  C   -2.56957838783222      1.12870755371144      0.34465870376104
  H   -4.31346126312352     -0.07732463780935     -0.02798269490335
  H   -3.13976409255921      2.01145475922832      0.61149162604613
  H   -0.65447685519063      2.08302749487979      0.62978041435497
