19
Coordinates from ORCA-job opt
  C   1.00089905191401      0.82235411808023     -0.06625268146769
  C   -0.45250977591553      0.74120853708786     -0.12533726110841
  C   1.74406193418845      0.52220186924570     -1.21468109177641
  C   1.67260641783993      1.21009527940858      1.09967265238905
  N   -1.28437746222601      1.34614014617056      0.77453292363122
  N   -1.15697394174638      0.08671776688627     -1.04394563603579
  C   -2.57472827102468      1.07128704426280      0.41184746451357
  H   -0.99877561218459      1.94856795786736      1.53095994513913
  C   -2.46883044551034      0.28595219318196     -0.71630990250094
  H   -3.42120556602107      1.44469639718706      0.96390994917770
  H   -3.26847317090468     -0.14341508270414     -1.29907876998395
  C   3.13025155433319      0.62041234340511     -1.19504764593625
  H   1.21351267216225      0.21802103822516     -2.10939270252987
  C   3.79454017127954      1.02579228445876     -0.03729192492338
  H   3.69611231268160      0.38818700815753     -2.09036499561598
  C   3.06047220102232      1.31450854279943      1.11086303088200
  H   4.87537205700204      1.10650271020612     -0.02723332400238
  H   3.56901585098881      1.61455956043954      2.02024601235676
  H   1.12043102212113      1.40411228563410      2.01400095779164
