19
Coordinates from ORCA-job opt
  C   -0.43176484761928     -0.01031791138017      0.00944487352803
  C   1.02461131255726     -0.05551882087120      0.01754142906973
  C   -1.14403118415988     -1.21375737552157     -0.07264394167784
  C   -1.13954398201771      1.19534684601536      0.08997165298868
  N   1.82521753055429      1.04374544182465     -0.11830210479382
  N   1.76344703615099     -1.15485544033931      0.14139012052891
  C   3.12822538119285      0.62916243916865     -0.08024601778805
  H   1.51422917225544      1.99083598759947     -0.26793966690253
  C   3.06316010226898     -0.73810401546257      0.08397616554697
  H   3.95443934039736      1.31470746684794     -0.17084177763674
  H   3.88382854115472     -1.43339587205507      0.16470844988637
  C   -2.53357182019047     -1.20483269511357     -0.08213511389995
  H   -0.58616315023575     -2.14111191355113     -0.12858994801717
  C   -3.23452050100791     -0.00080736332657     -0.01324052338885
  H   -3.07401041942485     -2.14267598815506     -0.14679508710892
  C   -2.53121811753511      1.19824807831088      0.07455541227268
  H   -4.31837033239472      0.00262891006690     -0.02309859125679
  H   -3.06622086684116      2.13919034528211      0.13837582934015
  H   -0.61531219510504      2.14064688066025      0.18958983930916
