19
Coordinates from ORCA-job opt
  C   0.99423079841825      1.00214298059066      0.06342106638536
  C   -0.46259943334872      1.01253464394157      0.06200722709498
  C   1.68117881703852      2.21491651116305     -0.07292239260695
  C   1.72449173189532     -0.18820286555978      0.16681087820932
  N   -1.22965761192257     -0.09081987024790     -0.18686919685252
  N   -1.23222110549160      2.07235060186585      0.29231762749853
  C   -2.54443004099350      0.28131470205206     -0.11853558341828
  H   -0.88649624173931     -1.00271128545088     -0.44643837969254
  C   -2.51952246155477      1.62627565395366      0.18333213394244
  H   -3.35023301567627     -0.41396418071803     -0.28592366971688
  H   -3.36040514765597      2.28595154315714      0.32880698677871
  C   3.07015636040869      2.22966617506657     -0.11818839389976
  H   1.10550286869814      3.13015908734392     -0.14700561455273
  C   3.79334948194656      1.03952126208605     -0.03743865596010
  H   3.59222344341188      3.17370412512986     -0.22762324377402
  C   3.11514581594813     -0.16791270538010      0.11276994432622
  H   4.87632715858433      1.05423235407160     -0.07967920671103
  H   3.66922370520279     -1.09635694136813      0.19419946872250
  H   1.21513487683011     -1.13490279169720      0.31806000422676
