19
Coordinates from ORCA-job opt
  C   0.99970458156468      0.85714335263397     -0.07315288306976
  C   -0.45222565681738      0.74189584123574     -0.10982329446973
  C   1.66691823201241      1.45431551077240      1.00348765846448
  C   1.74876308168486      0.32145107789582     -1.12822474862305
  N   -1.29485899363533      1.49705540454711      0.65667646622208
  N   -1.14485609339075     -0.09280579962757     -0.87918816142591
  C   -2.58001879500949      1.13207183673625      0.36133545883576
  H   -1.02037113746181      2.24017205017450      1.28043784958327
  C   -2.46003176298280      0.14246332729816     -0.59097445071031
  H   -3.43300521048082      1.58976890554039      0.83426556475831
  H   -3.25172018517439     -0.40846996986345     -1.07377387786211
  C   3.05700620847573      1.52115278832067      1.02063930088178
  H   1.10944386395383      1.83740762576103      1.85257932677799
  C   3.79782973267003      0.98286445937133     -0.02908986787814
  H   3.56199707942955      1.98078397571820      1.86285937098998
  C   3.13691807300065      0.38365453434683     -1.10147123440551
  H   4.88058089932790      1.02917900007400     -0.01130739011944
  H   3.70752875573962     -0.03707113333129     -1.92190312086286
  H   1.22179832709350     -0.14513178760409     -1.95227196708681
