19
Coordinates from ORCA-job opt
  C   0.99970980909526      0.85668027644264     -0.07291551954497
  C   -0.45221321474023      0.74144301469879     -0.10951849472116
  C   1.66695890424138      1.45413062186092      1.00355316530395
  C   1.74869826876766      0.32120511474061     -1.12814386355484
  N   -1.29478679762562      1.49689123946982      0.65677287042941
  N   -1.14487272249603     -0.09340018075632     -0.87868116517306
  C   -2.57996306879180      1.13183314209009      0.36158960664201
  H   -1.02013432583877      2.23996860325571      1.28050275165987
  C   -2.46005286996978      0.14203601405174     -0.59052535190903
  H   -3.43295312817459      1.58971644999965      0.83433365336931
  H   -3.25181261072144     -0.40891128603869     -1.07318918155770
  C   3.05701925466542      1.52160415288098      1.02030418891060
  H   1.10950068038926      1.83701647713315      1.85274852651287
  C   3.79777420535788      0.98368314540601     -0.02966776464284
  H   3.56206775026547      1.98148511168564      1.86235281197684
  C   3.13683568257011      0.38403545445439     -1.10178999545609
  H   4.88050777043475      1.03052945388880     -0.01221814234863
  H   3.70741814391007     -0.03645749076817     -1.92235984592767
  H   1.22169826866102     -0.14558731449577     -1.95204824996886
