19
Coordinates from ORCA-job opt
  C   -0.43421752773633      0.03128172329494      0.02448666298454
  C   1.02505788954197      0.09056430327034      0.00633861888517
  C   -1.10777979282098     -1.14732648371251     -0.31683091954440
  C   -1.17053320696759      1.18432621896627      0.31693897906163
  N   1.81082752523264     -0.88971109479138      0.54381255997435
  N   1.76957742743171      1.01714526069522     -0.58647504804496
  C   3.11854693959008     -0.56432146109453      0.30333837449126
  H   1.47728983866731     -1.67758419119898      1.07888772266667
  C   3.06666147409174      0.62015035207102     -0.39921580337711
  H   3.93839087061330     -1.17449759203845      0.64428006896309
  H   3.89366042175141      1.19662079588665     -0.78293177219098
  C   -2.49976423538055     -1.18204898915602     -0.32373766229154
  H   -0.54026563801922     -2.02905822853809     -0.59787042356387
  C   -3.22916469499998     -0.03590163819909     -0.01467977183733
  H   -3.01450829436639     -2.09834103474619     -0.59040849671438
  C   -2.56076791391636      1.14748764882428      0.29866640871871
  H   -4.31279400446728     -0.06195456628570     -0.02658045086491
  H   -3.12557981667317      2.04359459303703      0.53017040382957
  H   -0.63839526157231      2.09908638371518      0.55238754885449
