19
Coordinates from ORCA-job opt
  C   0.99440344609136      1.00058581040576      0.04995810534220
  C   -0.46249541393425      1.01194761161336      0.05528189931529
  C   1.68153505897948      2.21380034764014     -0.08147236141321
  C   1.72459642134853     -0.18958119663548      0.15648216532764
  N   -1.23190968233926     -0.09113790282116     -0.18770796416649
  N   -1.23006697791515      2.07280069977092      0.28774558699676
  C   -2.54595201722043      0.28231934260285     -0.11364469071750
  H   -0.89044276083043     -1.00327842741513     -0.44863298706799
  C   -2.51819210649295      1.62778106706555      0.18596306356530
  H   -3.35335108223014     -0.41231889961436     -0.27588816829433
  H   -3.35767625837290      2.28837720425580      0.33537514618248
  C   3.07079749813957      2.22947170874377     -0.11533897748942
  H   1.10559677865144      3.12869855025135     -0.15773462519046
  C   3.79419535732422      1.04001147042220     -0.02720909723703
  H   3.59326746407575      3.17393128277564     -0.21913758453541
  C   3.11554416604462     -0.16830398253571      0.11384925502882
  H   4.87751317815392      1.05555997402452     -0.05910406513501
  H   3.66974953911059     -1.09638594783527      0.19853327808606
  H   1.21428639141596     -1.13637871271479      0.30378302140230
