19
Coordinates from ORCA-job opt
  C   -0.43707227226490      0.03739805116143      0.01409857931670
  C   1.02813871346411      0.09564013531985     -0.01866503474635
  C   -1.10505581410403     -1.13182501980334     -0.36545484395480
  C   -1.17791179805457      1.17303152714602      0.35574786599383
  N   1.80848883793462     -0.68171652185156      0.78967580137726
  N   1.77649014633326      0.79658464026044     -0.86140757746003
  C   3.11864161093215     -0.45060385801080      0.46505536661836
  H   1.46710517363848     -1.28746062020238      1.52103059201151
  C   3.07272397338202      0.46838179941755     -0.55998890312612
  H   3.93494030185155     -0.93522137836753      0.97439360337949
  H   3.90228420085922      0.90173186847914     -1.09615110228932
  C   -2.49700866770102     -1.17452073454868     -0.36743581296852
  H   -0.52911041834807     -1.99991280900012     -0.66971368823472
  C   -3.23065921032119     -0.04485001998062     -0.01061767586112
  H   -3.00845092939377     -2.08338467889702     -0.66405195939455
  C   -2.56896458163732      1.12934743759136      0.34607861207120
  H   -4.31422855863056     -0.07680790439245     -0.01805774898300
  H   -3.13789172781980      2.01241751547469      0.61445947872435
  H   -0.65314498012018      2.08426157020405      0.62070044752583
