19
Coordinates from ORCA-job opt
  C   -0.43176471075200     -0.00813491863300      0.00499492301187
  C   1.02480761684604     -0.05391690861806      0.01076318363935
  C   -1.14329030940640     -1.21428288085472     -0.03694822496064
  C   -1.14149197425760      1.19837373213386      0.04699663176393
  N   1.82838792153852      1.04922939570029     -0.06039338949963
  N   1.76161319162155     -1.16000852460613      0.07371984298656
  C   3.13035959666085      0.63041174676341     -0.04193152625778
  H   1.52150632140429      2.00592129301360     -0.14010819849677
  C   3.06209736531559     -0.74388873860263      0.04333899130905
  H   3.95808726784553      1.31846697228162     -0.08956565986643
  H   3.88102544316314     -1.44466985638491      0.08469672582691
  C   -2.53278113440436     -1.20747786466941     -0.04256696507661
  H   -0.58441056784226     -2.14223167740572     -0.06545968694849
  C   -3.23543856166298     -0.00302871951518     -0.00772418618336
  H   -3.07187692716825     -2.14773849804129     -0.07585801400894
  C   -2.53319654982859      1.19891742938647      0.03820351944238
  H   -4.31931776259784     -0.00121170815060     -0.01345931506418
  H   -3.06901807540602      2.14098023771479      0.07119670669057
  H   -0.62044615106920      2.14905148848762      0.10120664169222
