19
Coordinates from ORCA-job opt
  C   0.99434403718703      1.00152199046214      0.05881233175154
  C   -0.46259508502224      1.01204173139985      0.05989496409706
  C   1.68108448435354      2.21453988202766     -0.07630224445091
  C   1.72474536939246     -0.18865127082986      0.16354879934228
  N   -1.23036871594089     -0.09118906619783     -0.18739870780400
  N   -1.23125853674617      2.07224261104534      0.29093425969599
  C   -2.54496483956668      0.28146626446694     -0.11655433344799
  H   -0.88698019590104     -1.00305476139516     -0.44669857175990
  C   -2.51885165370133      1.62661206659992      0.18437736297601
  H   -3.35173455099306     -0.41300008186091     -0.28262627199307
  H   -3.35969703078251      2.28601067068473      0.33144578945151
  C   3.07015573602441      2.22981420958624     -0.11774577515286
  H   1.10483351302336      3.12934660753002     -0.15131950177669
  C   3.79359802916544      1.04001376891503     -0.03407842698809
  H   3.59236172276060      3.17396260694570     -0.22560355880811
  C   3.11546167811959     -0.16782523302256      0.11341122559972
  H   4.87670082889357      1.05517523843933     -0.07276520989682
  H   3.66987185961760     -1.09596005627590      0.19615756376282
  H   1.21469335011630     -1.13516817852069      0.31361030540151
