19
Coordinates from ORCA-job opt
  C   1.00040623395562      0.83407086887470      0.06094568559087
  C   -0.45226698735226      0.73199559180489      0.10496382678117
  C   1.66685392699171      1.43908894705321     -1.01174736586352
  C   1.74977723783917      0.30315518862308      1.11817349431362
  N   -1.29180671081494      1.49537222714601     -0.65662207984200
  N   -1.14888583719789     -0.09580395615032      0.87826602090888
  C   -2.57883778224147      1.14314677914527     -0.35400594713142
  H   -1.01383717090534      2.23480109175881     -1.28323196697453
  C   -2.46304847067638      0.15241298257748      0.59773666169944
  H   -3.42982279196990      1.61012784968070     -0.82141564168694
  H   -3.25741427136265     -0.39008848669806      1.08571166793686
  C   3.05607194258542      1.52309025114163     -1.02036799383717
  H   1.10967028953789      1.81842113655183     -1.86274327060525
  C   3.79694297563618      0.99629313536346      0.03513755061838
  H   3.56027704874288      1.99090813069472     -1.85855506839859
  C   3.13714329691620      0.38273829534563      1.10006328243777
  H   4.87898954294409      1.05872896563297      0.02557996853386
  H   3.70781076713298     -0.03205911331523      1.92348465112328
  H   1.22337576023868     -0.16849888523079      1.93972752439529
