19
Coordinates from ORCA-job opt
  C   0.99425595845597      1.00190802041747     -0.05983819907948
  C   -0.46260827917913      1.01241569968922     -0.06018979550558
  C   1.68114534037127      2.21462583594895      0.07709326379876
  C   1.72451199148994     -0.18822029191937     -0.16586682392446
  N   -1.23000579945800     -0.09112357427813      0.18687678979872
  N   -1.23162169600216      2.07254712198995     -0.29059907366347
  C   -2.54468661987495      0.28135503823325      0.11714414359750
  H   -0.88697018532597     -1.00331373137692      0.44549475377593
  C   -2.51921449746719      1.62648944006763     -0.18371661563948
  H   -3.35094097795399     -0.41373363869653      0.28316580722039
  H   -3.36003793516351      2.28608146492311     -0.32988510455967
  C   3.07020963162523      2.22960227892815      0.11959215266115
  H   1.10528885889411      3.12960241926309      0.15300714381869
  C   3.79351109456762      1.03975113860640      0.03524478967294
  H   3.59236860441861      3.17356490581490      0.22922753520699
  C   3.11526716054086     -0.16772940116897     -0.11456442878437
  H   4.87658270158553      1.05468217642558      0.07484521893404
  H   3.66944284467331     -1.09589973543075     -0.19837469412632
  H   1.21490080380243     -1.13470416743703     -0.31755586320228
