19
Coordinates from ORCA-job opt
  C   0.99446187907787      0.99844636071472      0.02925889740434
  C   -0.46229465180319      1.01038626946402      0.04478471058420
  C   1.68124334679436      2.21229156467890     -0.09769355227225
  C   1.72519803868906     -0.19050235399212      0.14450625352580
  N   -1.23429440609454     -0.09181985032662     -0.19329002760268
  N   -1.22714292399392      2.07223198074138      0.28168250607720
  C   -2.54759429770595      0.28257324983724     -0.10849560249969
  H   -0.89669740506466     -1.00703326542763     -0.44833232151210
  C   -2.51642353502055      1.62818849708111      0.19005379310676
  H   -3.35642745616775     -0.41182422319662     -0.26449461026287
  H   -3.35459203426693      2.28917306600998      0.34491421116033
  C   3.07085088628602      2.23028354719564     -0.11372076981450
  H   1.10523218788444      3.12659652724712     -0.17972599866278
  C   3.79520247545218      1.04258002487514     -0.01070676638821
  H   3.59263301494141      3.17567902115685     -0.21215952329756
  C   3.11663835391909     -0.16695793073148      0.11954187191028
  H   4.87883309554565      1.06020455717012     -0.02627447003321
  H   3.67073511552046     -1.09423462916377      0.21310366458273
  H   1.21583731600694     -1.13836141333399      0.28814773399419
