19
Coordinates from ORCA-job opt
  C   -0.43363656638788      0.02884982048102     -0.01941998258614
  C   1.02461142621514      0.08514060183534     -0.00383310181297
  C   -1.11197828125132     -1.15441916014725      0.29581022529629
  C   -1.16597640785217      1.18951902151188     -0.29205934614454
  N   1.81088069816590     -0.92161476122032     -0.48914390707295
  N   1.76957232608588      1.04700080257681      0.52982041465856
  C   3.11859182490951     -0.57929382019765     -0.27409164913580
  H   1.47858512437586     -1.73777470548033     -0.98071096845354
  C   3.06661447403332      0.64337776947610      0.35992804272632
  H   3.93859735424809     -1.20595550350037     -0.58328474298491
  H   3.89378339391609      1.24287927194405      0.70615614305385
  C   -2.50400080097618     -1.18493135421217      0.29843595567717
  H   -0.54970497731544     -2.04375336554092      0.56326963252382
  C   -3.22936211966917     -0.03084701346127      0.01030422236132
  H   -3.02199789252663     -2.10496371612225      0.54520482989715
  C   -2.55614191455828      1.15635693940791     -0.27768886924782
  H   -4.31307602895323     -0.05387831982604      0.01870555023196
  H   -3.11750108964938      2.05855226868257     -0.49346522961382
  H   -0.62967154281012      2.10624422379290     -0.50945521937395
