19
Coordinates from ORCA-job opt
  C   0.99427989007839      1.00138803347868      0.05767904409030
  C   -0.46256692479600      1.01197404759894      0.05936432528832
  C   1.68102470338670      2.21439491533690     -0.07737096303258
  C   1.72470785378963     -0.18868096543131      0.16324607016205
  N   -1.23046725915217     -0.09109697450260     -0.18819763960797
  N   -1.23108643180477      2.07209397128648      0.29136149168683
  C   -2.54503224732632      0.28163197923223     -0.11675913268635
  H   -0.88770787306530     -1.00310826156451     -0.44782063765421
  C   -2.51883224145544      1.62654847038234      0.18513329578787
  H   -3.35168357739112     -0.41298340171823     -0.28275974086638
  H   -3.35936312273962      2.28617770440387      0.33282489992404
  C   3.07014698259085      2.22978807552845     -0.11783897261307
  H   1.10501103180621      3.12929574752899     -0.15285547812962
  C   3.79366952571562      1.04009080898469     -0.03322698553579
  H   3.59221691443461      3.17399754193057     -0.22570871026095
  C   3.11549286353543     -0.16777009746768      0.11393358134893
  H   4.87679411343357      1.05533704039077     -0.07100557977761
  H   3.66983486544999     -1.09585614699772      0.19755941908233
  H   1.21496293350972     -1.13532148840086      0.31354371279384
