19
Coordinates from ORCA-job opt
  C   0.99952266261190      0.86164565573596      0.07684611573326
  C   -0.45430868601566      0.79713883558275      0.14731114117282
  C   1.65921188418394      1.66302096710661     -0.86313166078273
  C   1.75586949903384      0.12595095446838      0.99764123722281
  N   -1.28268263181990      1.17588828769640     -0.87159934401723
  N   -1.16210867726916      0.36706764960820      1.18763686053136
  C   -2.57404915984227      0.97558214891896     -0.46616841690645
  H   -0.99153488965413      1.48483420515713     -1.78615520265736
  C   -2.47256683319792      0.47673926725333      0.81499835339934
  H   -3.41815517837166      1.19506586378811     -1.09866362704330
  H   -3.27466910914866      0.19875557506615      1.48039860792717
  C   3.04960433473446      1.72051858863522     -0.88710123912136
  H   1.09324107959774      2.27545761405965     -1.55818678423635
  C   3.79748482095269      0.98931354587486      0.03297541230778
  H   3.54848914664378      2.34908455324553     -1.61623384998577
  C   3.14381154899102      0.19394840708709      0.97423504194676
  H   4.88008026054821      1.04002107552939      0.01768462261409
  H   3.72003418207475     -0.37747969539596      1.69336977693101
  H   1.23412674594703     -0.48465349941777      1.72524295496416
