19
Coordinates from ORCA-job opt
  C   -0.43406575689053     -0.05122344386673      0.04356027279676
  C   1.02574146467154     -0.09571575412097      0.02290357023793
  C   -1.16814615358342     -1.19282081350866     -0.29657484167846
  C   -1.10977720359112      1.13821276999967      0.33992945495845
  N   1.78392808681613      0.88982016661050     -0.54373567187576
  N   1.79818330982096     -1.01150807413798      0.59652612579801
  C   3.10184754549621      0.57800500231582     -0.34454938409373
  H   1.42516432287278      1.67073475013215     -1.07266971884158
  C   3.08455607508340     -0.60319369383565      0.36523201110791
  H   3.90413107504086      1.19381500648883     -0.71579279480881
  H   3.92928077384434     -1.16975933640790      0.72431123677846
  C   -2.55815060202073     -1.14863377536667     -0.31577409716008
  H   -0.63460199891380     -2.10718957681758     -0.53070060813418
  C   -3.22836513815660      0.03785725910053     -0.01827613373894
  H   -3.12106594020078     -2.03835326585661     -0.57492663226931
  C   -2.50137094204042      1.18008507377738      0.31009183113891
  H   -4.31170801166675      0.07035988428690     -0.03762222977806
  H   -3.01789734304763      2.10208888314556      0.55255465821238
  H   -0.54512056353444      2.01968993806140      0.62753495135010
