19
Coordinates from ORCA-job opt
  C   -0.43824672787880     -0.04370906871633      0.06446454073661
  C   1.03085417721637     -0.07385946318694      0.07670260490250
  C   -1.16567192033901     -1.19644885389137     -0.24735852028345
  C   -1.11867972849756      1.15166428675017      0.31810061298958
  N   1.77512891283005      0.45527420067217     -0.93929846869444
  N   1.81426473316440     -0.53181671385198      1.04448631634648
  C   3.09823764208347      0.31555214169300     -0.61381441053358
  H   1.40186923538877      0.85682187887012     -1.78647170536327
  C   3.09676389984283     -0.29874417705346      0.61867227338015
  H   3.89145409306859      0.64809512890984     -1.26251984730869
  H   3.94847579468357     -0.57904811095611      1.21815950268410
  C   -2.55676626982797     -1.15719927732264     -0.28706130916905
  H   -0.63287726361716     -2.12083033944207     -0.44230975298222
  C   -3.23051867733367      0.03551523543309     -0.02901558780726
  H   -3.11530844974216     -2.05604533141443     -0.52287872648727
  C   -2.51017793915941      1.18919892951067      0.27437199460754
  H   -4.31375369303404      0.06472002134740     -0.06023674389717
  H   -3.03179052218203      2.11686053123917      0.48150985950218
  H   -0.55210529666624      2.04295598140969      0.56707236737726
