19
Coordinates from ORCA-job opt
  C   -0.43312135243033      0.02641704842779      0.01256718063247
  C   1.02431337296060      0.07950516798341     -0.00075150101406
  C   -1.11660895503745     -1.16147313514195     -0.27326811892195
  C   -1.16129902659890      1.19468928365680      0.26421897542931
  N   1.81113408940444     -0.94898803238808      0.43570201338678
  N   1.76977724880941      1.07162865915185     -0.47565031591934
  C   3.11883119782579     -0.59166632840955      0.24729339196998
  H   1.48008032133800     -1.78991139927749      0.88431488084872
  C   3.06677274532089      0.66322203104548     -0.32055954477893
  H   3.93895966140236     -1.23191863252041      0.52692099578132
  H   3.89413120044462      1.28271490844523     -0.62908257964049
  C   -2.50863273069038     -1.18757962441343     -0.27060323270503
  H   -0.56007751449088     -2.05894429853301     -0.52523453927248
  C   -3.22970567728895     -0.02546955026725     -0.00503855431240
  H   -3.03007803365307     -2.11139336135653     -0.49497282367987
  C   -2.55140362670317      1.16538006994128      0.25496814127170
  H   -4.31348988226427     -0.04535677752949     -0.00904297208434
  H   -3.10905996094813      2.07372952769981      0.45392424969215
  H   -0.62070507740060      2.11332944348557      0.46169835331648
