19
Coordinates from ORCA-job opt
  C   -0.43892778048395     -0.00047188941940     -0.05386743533571
  C   1.03110178587183     -0.00089666587815     -0.09187550634605
  C   -1.14348982301578     -1.20799087008850     -0.02838695749332
  C   -1.14301712306863      1.20750384233396     -0.03902365612662
  N   1.78771737802116      0.00657047522232      1.04551978180565
  N   1.80299849354578     -0.00748868037225     -1.17057145559479
  C   3.10724860013305      0.00457302749349      0.67776585553313
  H   1.42459969991691      0.01228044114581      1.98693868815177
  C   3.09114845093065     -0.00417265994709     -0.69898614863780
  H   3.90829403488788      0.00930456791232      1.39810950188024
  H   3.93595608267060     -0.00818660844821     -1.36950330113130
  C   -2.53539344211988     -1.20634181335595      0.01345682515726
  H   -0.59412676220855     -2.14302829593864     -0.05457743693013
  C   -3.23234709210304      0.00045297137721      0.03106115209205
  H   -3.07592156908297     -2.14607797093711      0.02801317559796
  C   -2.53492497472037      1.20677184238153      0.00286188722685
  H   -4.31600660794068      0.00080083194205      0.06127208522481
  H   -3.07508496823647      2.14681199434564      0.00911274856274
  H   -0.59332438299753      2.14208346023099     -0.07350280363673
