19
Coordinates from ORCA-job opt
  C   0.99978408664471      0.85458130747545      0.07192444937435
  C   -0.45223525180586      0.74083357558694      0.10942374724166
  C   1.66684077766803      1.45333228622742     -1.00393434229218
  C   1.74892898903346      0.31857900616483      1.12677399949230
  N   -1.29451039055363      1.49750410413702     -0.65597429676842
  N   -1.14531190144865     -0.09369020163189      0.87858684668185
  C   -2.57989310092032      1.13377538403542     -0.36003964049472
  H   -1.01965674162922      2.24097655735874     -1.27915158469879
  C   -2.46040754542110      0.14330571896434      0.59143697028809
  H   -3.43264346698066      1.59284759498340     -0.83206267148574
  H   -3.25240347602444     -0.40705128561536      1.07438967083581
  C   3.05685987304848      1.52191899956502     -1.02025164901484
  H   1.10934248506914      1.83662632987079     -1.85291857625665
  C   3.79775284795657      0.98404576161977      0.02963434642889
  H   3.56173199503053      1.98298427026631     -1.86175968952935
  C   3.13701921500177      0.38256098888680      1.10085433617061
  H   4.88044577565149      1.03202406906491      0.01266297097683
  H   3.70769678589073     -0.03816108564385      1.92124166533384
  H   1.22205804378894     -0.14909438131607      1.95026444771647
