19
Coordinates from ORCA-job opt
  C   0.99964632439152      0.85952815501128     -0.07104089486679
  C   -0.45390009490296      0.76990847412390     -0.12656082420805
  C   1.66799924838329      1.56119996752920      0.93992838419656
  C   1.75144261940773      0.22006596017768     -1.06549731776497
  N   -1.29557301746752      1.34811480542205      0.78181893700362
  N   -1.15124583627720      0.12196948627901     -1.05621008258754
  C   -2.58140236854998      1.05755504395491      0.41726785041459
  H   -1.02353572340409      1.89488710717770      1.58348266442861
  C   -2.46509680402057      0.29582216811237     -0.72591112020078
  H   -3.43227815232761      1.40396975707657      0.98011856929679
  H   -3.25806336320153     -0.13064773149533     -1.31977659789448
  C   3.05831909848930      1.62205661412770      0.95605457279169
  H   1.11609064956827      2.06779275024526      1.72532699778660
  C   3.80055821168105      0.98445701980840     -0.03507559082433
  H   3.56175434668840      2.16915685200133      1.74526553929108
  C   3.13927712583832      0.28435529888381     -1.04412112674031
  H   4.88327135290328      1.03270035646490     -0.02124196715017
  H   3.70956924687378     -0.21486086101629     -1.81957218540929
  H   1.22456613592654     -0.32013022388445     -1.84315380756282
