19
Coordinates from ORCA-job opt
  C   0.99433420147490      1.00039905342346      0.04934578192806
  C   -0.46250161843814      1.01143002261978      0.05451792034923
  C   1.68112999439032      2.21367303381654     -0.08290420127974
  C   1.72486242358775     -0.18934817305928      0.15781683626783
  N   -1.23173840082893     -0.09152785345099     -0.18937628285525
  N   -1.23001382877325      2.07217700414061      0.28731936741898
  C   -2.54592739199867      0.28194012602164     -0.11511638720150
  H   -0.89033067132242     -1.00383344505082     -0.44980657493425
  C   -2.51809144006952      1.62722811355376      0.18528683450253
  H   -3.35331621832041     -0.41259607335175     -0.27778449137974
  H   -3.35779589621388      2.28748870764660      0.33491115611899
  C   3.07043605485842      2.22985840023666     -0.11559123618264
  H   1.10511748311674      3.12840175113203     -0.16040369542965
  C   3.79423596478421      1.04076725865933     -0.02544499593830
  H   3.59251433011939      3.17442324169116     -0.22027882514626
  C   3.11584182376183     -0.16763381494897      0.11627233446064
  H   4.87756591772709      1.05672277635201     -0.05628070318272
  H   3.67019264791590     -1.09544400950892      0.20282739671142
  H   1.21488262422866     -1.13622611992286      0.30578876577238
