19
Coordinates from ORCA-job opt
  C   0.99440294708914      0.99952369040097      0.04064831363267
  C   -0.46242159662695      1.01095972838667      0.05018744316671
  C   1.68118317726906      2.21309558821201     -0.08878720381129
  C   1.72503204334782     -0.18993342553720      0.15152790552617
  N   -1.23291061303801     -0.09174061863641     -0.19075631558064
  N   -1.22877729829148      2.07224568123342      0.28443618232829
  C   -2.54672211179755      0.28208662223428     -0.11161080836098
  H   -0.89300368288699     -1.00506583549743     -0.44954785919783
  C   -2.51733032830392      1.62777671233483      0.18685950780237
  H   -3.35482390385538     -0.41246436381949     -0.27058859762942
  H   -3.35630223627348      2.28852762466726      0.33838083108247
  C   3.07062324102929      2.23008204264591     -0.11427479236854
  H   1.10506799913683      3.12762081307893     -0.16780858120995
  C   3.79468164515350      1.04155533364384     -0.01908312036297
  H   3.59263344411362      3.17501769940730     -0.21586352718042
  C   3.11620145752171     -0.16741645378159      0.11716996613785
  H   4.87816447687516      1.05823937290930     -0.04333563935599
  H   3.67052656266583     -1.09498290345213      0.20637915920524
  H   1.21517677687181     -1.13722730843047      0.29716713617625
