19
Coordinates from ORCA-job opt
  C   1.00027468353526      0.84242515977600     -0.07199405945141
  C   -0.45271635225286      0.75144074612677     -0.12797436348668
  C   1.74371103774586      0.53465489413028     -1.21821101808369
  C   1.67269182520091      1.22589277301471      1.09489188595054
  N   -1.28769811815637      1.34686855698869      0.77519567269774
  N   -1.15436948643906      0.09509966136941     -1.04750204358827
  C   -2.57658402916148      1.06257976805508      0.41495492433889
  H   -1.00593561613853      1.94727123616298      1.53468362149432
  C   -2.46658492728392      0.28271542549712     -0.71664708438189
  H   -3.42469293978515      1.42652847398443      0.97081887721751
  H   -3.26392677770025     -0.15082451352629     -1.29959611009172
  C   3.13076933225949      0.61639049613211     -1.19400969603002
  H   1.21278331099123      0.23295387325639     -2.11357261200750
  C   3.79634256284944      1.01134082431465     -0.03350564168626
  H   3.69671886007721      0.37586153689862     -2.08712691601195
  C   3.06154694658647      1.31369894318791      1.11067632466848
  H   4.87816548199682      1.07699144322526     -0.01925987854993
  H   3.57032370843626      1.60917339017878      2.02146852149318
  H   1.12058149723867      1.42683631122712      2.00780959550866
