19
Coordinates from ORCA-job opt
  C   -0.43183878933306     -0.00731095171923     -0.00000081955748
  C   1.02476493805241     -0.05365919498315     -0.00000247236682
  C   -1.14312801990149     -1.21442559307380      0.00000934174260
  C   -1.14209884400262      1.19956715192450     -0.00000978602066
  N   1.82943608028131      1.05111487673343     -0.00000791467203
  N   1.76072157037590     -1.16215709576197      0.00000181108947
  C   3.13100433155867      0.63071452176328      0.00003913568370
  H   1.52425086636957      2.01157193485890     -0.00000824122919
  C   3.06171090090747     -0.74610848994131     -0.00003427891765
  H   3.95939306783070      1.31961407654170      0.00007054448298
  H   3.88019877844318     -1.44857002161869     -0.00005927494607
  C   -2.53259278961170     -1.20837388530741      0.00000959466899
  H   -0.58376535203341     -2.14247640602105      0.00001681484548
  C   -3.23570830697578     -0.00371294149231      0.00000196242346
  H   -3.07129261102533     -2.14942439395228      0.00001712992324
  C   -2.53384159151672      1.19927831954415     -0.00000728687933
  H   -4.31958747986367     -0.00243862340216      0.00000324052373
  H   -3.06991746688184      2.14174653307280     -0.00001362035606
  H   -0.62226828267358      2.15238418283460     -0.00001888043836
