19
Coordinates from ORCA-job opt
  C   -0.43236607220225      0.02145835418988     -0.00298227215872
  C   1.02405282135683      0.06921565461083     -0.01251708079925
  C   -1.12574728264590     -1.17482742127969     -0.22331571809113
  C   -1.15309203357597      1.20372907701890      0.20324145911585
  N   1.81317937168957     -0.99243776458303      0.33056112973594
  N   1.76956509626251      1.11002655652065     -0.37008336699016
  C   3.12029209571578     -0.61006132265129      0.19694186047793
  H   1.48611272868261     -1.87605092480115      0.69077685641184
  C   3.06674170513049      0.69587565238979     -0.24123914075981
  H   3.94114146221679     -1.27130832027533      0.41990074187200
  H   3.89357033889372      1.34848402846619     -0.47346106853237
  C   -2.51764465647129     -1.19247213515701     -0.20947743730392
  H   -0.58113189098282     -2.08910077515026     -0.43828704817773
  C   -3.23082798490222     -0.01543502073819      0.00658312270183
  H   -3.04526890135604     -2.12354971168753     -0.38380537425579
  C   -2.54302768055994      1.18178835246090      0.20559459731307
  H   -4.31466834720011     -0.02930475086751      0.01221509945614
  H   -3.09361471760727      2.10170021658961      0.36786456707129
  H   -0.60477005244448      2.12595625494425      0.35722607291299
