19
Coordinates from ORCA-job opt
  C   1.00778692306386      0.77361464969620     -0.01378401143792
  C   -0.45768116160555      0.64999836424581     -0.02341847674568
  C   1.70788236679071      0.95045401175396     -1.21119207545292
  C   1.71172100573367      0.71860360831833      1.19314668017992
  N   -1.28033559360717      1.73393581236628      0.09476710669210
  N   -1.16474856062398     -0.46617643845853     -0.14119487388746
  C   -2.57586908607534      1.29139021716882      0.05037145460591
  H   -0.97367376349610      2.68988860018374      0.19631500108476
  C   -2.47808498157466     -0.07433615568378     -0.09606461153572
  H   -3.41766006149538      1.95965286187543      0.12387086055375
  H   -3.28135590055279     -0.79030481161086     -0.17074746072212
  C   3.09490193806660      1.07287321296375     -1.20039805744593
  H   1.15915340404905      0.97822922115048     -2.14658586240415
  C   3.79141906460749      1.02044933426525      0.00560759736108
  H   3.63242358095169      1.20498155483503     -2.13268472992960
  C   3.09874173264105      0.84135114519333      1.20160756368719
  H   4.87150425050089      1.11357288352656      0.01286503213080
  H   3.63924883553948      0.79293685213318      2.14025035252493
  H   1.16602400708647      0.56678707607703      2.11836851074106
