19
Coordinates from ORCA-job opt
  C   0.99962047464406      0.85923034081580      0.07477952436901
  C   -0.45419486736250      0.79592844313324      0.14627271969193
  C   1.65933809852587      1.66140607350742     -0.86449610902220
  C   1.75594484831981      0.12416052341500      0.99612023388441
  N   -1.28309324607646      1.17577319593146     -0.87180325046350
  N   -1.16160478691509      0.36618728508061      1.18706342283042
  C   -2.57430487188716      0.97642653225018     -0.46546128001993
  H   -0.99262374477218      1.48478398387822     -1.78655825338612
  C   -2.47225567502369      0.47716160217878      0.81552243399024
  H   -3.41865544296432      1.19706400197954     -1.09722654730652
  H   -3.27397887781109      0.19974146231335      1.48160710528491
  C   3.04968698994908      1.72089738465162     -0.88674257018129
  H   1.09348607264897      2.27341585248813     -1.56001698223670
  C   3.79749967555454      0.99110031974150      0.03450088474392
  H   3.54850666922442      2.35033382005055     -1.61516493496635
  C   3.14381883156342      0.19418791472234      0.97444569000461
  H   4.88002573299869      1.04362882440766      0.02074540944752
  H   3.71993002886807     -0.37649564308848      1.69425813327356
  H   1.23425409051557     -0.48703191745692      1.72325537006208
