19
Coordinates from ORCA-job opt
  C   -0.43852919557585      0.03108912542294     -0.01561755449270
  C   1.02990277724091      0.06943945730059     -0.05667632304748
  C   -1.11920652149315     -1.15778667661766     -0.29737968742620
  C   -1.16690780127150      1.19179138469367      0.26206267686551
  N   1.80120006980281     -0.45074487837195      0.94362728138741
  N   1.78751254313423      0.52839228865715     -1.04440591201911
  C   3.11541534215143     -0.30478086274385      0.58644687283391
  H   1.45076360440375     -0.85128983785023      1.80094038394112
  C   3.08103356869000      0.30463215651278     -0.64798595556269
  H   3.92576158703414     -0.63008547535056      1.21740459651724
  H   3.91657404684397      0.58765421849160     -1.26859423617671
  C   -2.51133260429256     -1.18966452315542     -0.27878578248150
  H   -0.55187841585345     -2.05000656025476     -0.54119079212110
  C   -3.23236201334553     -0.03249292296679      0.00945020111137
  H   -3.03301462144349     -2.11379515542197     -0.50097868900312
  C   -2.55863228391693      1.15822064910917      0.27648218627038
  H   -4.31612731170834     -0.05689038403874      0.01935995762278
  H   -3.11785846180156      2.06167708222930      0.49218963537804
  H   -0.63406530859888      2.11617491435471      0.45671014040285
