19
Coordinates from ORCA-job opt
  C   0.99992828667372      0.85078807290413      0.06976518989076
  C   -0.45225516551241      0.73932091462007      0.10845913339173
  C   1.66696840817945      1.45042916251466     -1.00560817408103
  C   1.74903354451565      0.31592770108144      1.12519343893905
  N   -1.29413698014587      1.49700993414872     -0.65631105488380
  N   -1.14593673412764     -0.09395067706719      0.87844239911213
  C   -2.57981372327160      1.13555121716539     -0.35886685887039
  H   -1.01842655513985      2.24046442342210     -1.27915040323157
  C   -2.46077167795229      0.14504606913505      0.59267823924660
  H   -3.43241758910007      1.59606399724578     -0.82973319491888
  H   -3.25321434677082     -0.40399355320451      1.07643858267962
  C   3.05680313379304      1.52178568559582     -1.02050245801115
  H   1.10925043688629      1.83281361854596     -1.85487664446870
  C   3.79764194296311      0.98619915107119      0.03061563548065
  H   3.56169398993360      1.98396897612615     -1.86139068458927
  C   3.13698904184005      0.38274445848637      1.10075837480610
  H   4.88023612209511      1.03681102471241      0.01504736429343
  H   3.70767222406187     -0.03672706147484      1.92179002963921
  H   1.22215564107864     -0.15235411502871      1.94834808557552
