19
Coordinates from ORCA-job opt
  C   -0.43413134522398     -0.05111808767355     -0.04353833275836
  C   1.02567386508948     -0.09564965902929     -0.02279887915311
  C   -1.16828055344561     -1.19266198153034      0.29661753527538
  C   -1.10978018076194      1.13832943218341     -0.34001861525167
  N   1.78385541167566      0.88989935701354      0.54381848286607
  N   1.79812990099207     -1.01149099105216     -0.59632872134147
  C   3.10178200494701      0.57803292918473      0.34474279814846
  H   1.42508450204036      1.67083338535847      1.07271994297005
  C   3.08449535340914     -0.60320085373659     -0.36498347462738
  H   3.90401548019468      1.19388715284766      0.71602220863844
  H   3.92923029457760     -1.16980182070506     -0.72398504865606
  C   -2.55828563838044     -1.14840826468908      0.31573122620206
  H   -0.63482107004864     -2.10705655951188      0.53083643663871
  C   -3.22843575027013      0.03809158739999      0.01812387338700
  H   -3.12126191556490     -2.03808508110592      0.57490020917204
  C   -2.50137246792821      1.18026981128574     -0.31026646297963
  H   -4.31177891822721      0.07063192289906      0.03740722844746
  H   -3.01783766833638      2.10228526738366     -0.55281681188579
  H   -0.54505430473856      2.01975845347760     -0.62763759509221
