19
Coordinates from ORCA-job opt
  C   0.99443669198591      0.99952862102403     -0.03669453731029
  C   -0.46237167088440      1.01097496726218     -0.04860655250796
  C   1.68143399146578      2.21272978223330      0.09491634847606
  C   1.72489486121908     -0.18960709285980     -0.15213780345392
  N   -1.23321530285615     -0.09132329745085      0.19283585275815
  N   -1.22876008608103      2.07160604964860     -0.28588511995893
  C   -2.54690589272148      0.28197973561193      0.11130034934158
  H   -0.89353332378203     -1.00375121354576      0.45520691045411
  C   -2.51713921145076      1.62712695398245     -0.18966914328500
  H   -3.35512382514275     -0.41253359210485      0.26992330838341
  H   -3.35585980798603      2.28767486008268     -0.34380913710445
  C   3.07086166218922      2.22969834075634      0.11723303279734
  H   1.10552967162066      3.12716140159900      0.17703224549638
  C   3.79481105729425      1.04163773709193      0.01634481968744
  H   3.59307564995113      3.17444703441648      0.21990837857988
  C   3.11607488240518     -0.16707730708928     -0.12090347726092
  H   4.87837781655168      1.05839833335487      0.03773582090998
  H   3.67026829830153     -1.09440646530413     -0.21379978383569
  H   1.21454253792020     -1.13636384870912     -0.29983151216719
