19
Coordinates from ORCA-job opt
  C   0.99948848537323      0.86413309348765     -0.07887501522625
  C   -0.45442022000423      0.79827588222341     -0.14817307553699
  C   1.65913049491658      1.66364685212582      0.86273128982890
  C   1.75586699024617      0.12890487461250     -1.00002658347166
  N   -1.28230750840903      1.17575588184440      0.87159212871053
  N   -1.16268576822559      0.36800977828747     -1.18809490170611
  C   -2.57382102415796      0.97453819205030      0.46713067571651
  H   -0.99019227901969      1.48393868384139      1.78609669010700
  C   -2.47284652467761      0.47615901772332     -0.81426851039799
  H   -3.41778826989306      1.19255495614410      1.10031618423985
  H   -3.27549577883290      0.19789334896862     -1.47892151651062
  C   3.04953311950417      1.71937398158975      0.88830008286062
  H   1.09278088628520      2.27546779598214      1.55802346841744
  C   3.79747014528947      0.98784919850473     -0.03146826843375
  H   3.54852319076889      2.34608455073689      1.61896728517584
  C   3.14384637833834      0.19501131423521     -0.97488421387214
  H   4.88013135148819      1.03679378382903     -0.01463064342927
  H   3.72027354800897     -0.37617024200306     -1.69406560816524
  H   1.23391278300085     -0.48032394418367     -1.72864846830667
