19
Coordinates from ORCA-job opt
  C   0.99957535251409      0.86046935240749      0.07584338409304
  C   -0.45423467587877      0.79616267951188      0.14660671506212
  C   1.65920191673897      1.66260249524497     -0.86352680928659
  C   1.75600751731736      0.12500364676443      0.99677975806712
  N   -1.28289613150342      1.17609228131731     -0.87162014619938
  N   -1.16190416016088      0.36540131086301      1.18682047643550
  C   -2.57417782332231      0.97554443551465     -0.46608626539905
  H   -0.99233888391049      1.48534676599667     -1.78626967073893
  C   -2.47242347034960      0.47570240493210      0.81470173186999
  H   -3.41830571324283      1.19605319630143     -1.09819412803175
  H   -3.27425458441794      0.19735575906446      1.48027183484431
  C   3.04957465319582      1.72144120042881     -0.88643595898885
  H   1.09334932685781      2.27497046578220     -1.55873105671390
  C   3.79750784418420      0.99089509869571      0.03410134597086
  H   3.54830043440902      2.35075503187140     -1.61503018706941
  C   3.14390140896137      0.19436445869110      0.97442146760265
  H   4.88005976793803      1.04273631962675      0.01968734641741
  H   3.72007460029334     -0.37675826838014      1.69383696569099
  H   1.23438462037623     -0.48623963463426      1.72392419637387
