19
Coordinates from ORCA-job opt
  C   1.00019950618642      0.84424866075632      0.07274678479557
  C   -0.45273625856041      0.75181894162953      0.12836652438542
  C   1.74355411583038      0.53577715257930      1.21879277435257
  C   1.67241063077432      1.22742048639043     -1.09436904744237
  N   -1.28762483601470      1.34967575596415     -0.77338273712144
  N   -1.15377323630355      0.09257950241865      1.04617407997582
  C   -2.57647330117134      1.06319247891136     -0.41414970860307
  H   -1.00590084406287      1.94950939416320     -1.53328445893183
  C   -2.46650585941058      0.28020221571835      0.71522877852373
  H   -3.42462385972082      1.42870737508398     -0.96891205695840
  H   -3.26388787286143     -0.15535192302861      1.29647668140371
  C   3.13085110358713      0.61589779460342      1.19408375324977
  H   1.21268930149221      0.23444706191351      2.11424841115782
  C   3.79630519313161      1.00992570810768      0.03310662503185
  H   3.69684886260241      0.37474451456349      2.08693560443544
  C   3.06148973527112      1.31375137112223     -1.11064572358603
  H   4.87818506132674      1.07406369334370      0.01834921935601
  H   3.57023882302328      1.60844644934666     -2.02164695279427
  H   1.12015473488008      1.42884436641264     -2.00701955123030
