18
Coordinates from ORCA-job mp2_opt
  C   -0.39868795663580      0.02030246890259      0.00002646372830
  C   -1.11438114875839      1.21719047871036      0.00007946393601
  C   -1.06106264626338     -1.20586862088763     -0.00011342796562
  C   -2.50524335939495      1.18037318446729      0.00001768472348
  H   -0.60532953592853      2.17221019561081      0.00023276502656
  C   -2.45222661968561     -1.22635715067288     -0.00016495792805
  H   -0.48165560990353     -2.11916451615985     -0.00016956734470
  C   -3.17978647869592     -0.03849118518219     -0.00010434049962
  H   -3.05971454745192      2.11145230696392      0.00007423248592
  H   -2.96704345628692     -2.17997657399376     -0.00026615559119
  H   -4.26296009440991     -0.06118220372724     -0.00014606980915
  N   1.01991802967094      0.03741599820671      0.00003460022819
  N   1.72254158944552     -1.11317352369625      0.00029142080731
  N   3.12925766738879      0.66909756764054     -0.00042057257419
  C   1.87462205234517      1.09350591827269     -0.00022914327613
  H   1.55406750442513      2.12160573728553     -0.00040989794047
  C   2.98337374081852     -0.67867106215287     -0.00018346811417
  H   3.81190486932078     -1.36903301958775     -0.00017602989247
