19
Coordinates from ORCA-job opt
  C   0.99104574585088      1.03268977187037     -0.02609631458902
  C   -0.47442029711862      1.05797639975838     -0.10489606442809
  C   1.70364911487896     -0.11715380525836     -0.39024907771151
  C   1.70429727026017      2.14752160291607      0.43265346952187
  C   -1.31513023707040     -0.05370351388774      0.16073465946561
  C   -1.21339892804868      2.17802912130957     -0.45336051749345
  C   -2.65249715983036      0.23938058789527      0.01466466076694
  H   -0.95188641593807     -1.02292559867310      0.47836818782659
  S   -2.88493146764255      1.86210661282580     -0.45166925246828
  H   -3.50024029359897     -0.41056108958989      0.17424031413335
  H   -0.84119086362543      3.14954807519077     -0.74594963094782
  C   3.09178925149883     -0.15098677713319     -0.29631657289979
  H   1.16541081828974     -0.97995578326023     -0.76823871194436
  C   3.79158709532265      0.96374947544072      0.16197222620341
  H   3.62833358264560     -1.04803802412025     -0.58501079372201
  C   3.09262790276027      2.11470426303878      0.52164272243419
  H   4.87258624655068      0.93608592133106      0.23736369134341
  H   3.62872612499833      2.98413563797247      0.88577691649535
  H   1.16114250981696      3.03209612237351      0.74897108801359
