19
Coordinates from ORCA-job opt
  C   0.98765242760025      0.98505503081867      0.09549504099989
  C   -0.48011425942647      0.98264463386384      0.09226625340928
  C   1.70224039782083      2.10436293583939      0.54140079300907
  C   1.70178002234494     -0.12483510282779     -0.37445632284723
  C   -1.28295311179973      0.35924349393110     -0.89771336046262
  C   -1.25881529490008      1.59144085421313      1.06432842896152
  C   -2.63165086619194      0.50774120386677     -0.66418513410849
  H   -0.88331730558076     -0.15054177149659     -1.76521009555519
  S   -2.92143071807682      1.39720469431597      0.76063677254761
  H   -3.45651243909097      0.15435374853866     -1.26529459541384
  H   -0.92036165901953      2.10300950372044      1.95413634392014
  C   3.09359533876316      2.11277246925270      0.51990991615365
  H   1.15840077914593      2.98184677677159      0.87566180366648
  C   3.79429728399782      1.00608891076497      0.04349249899599
  H   3.63167653271734      2.99020387058157      0.86116845541445
  C   3.09324722448329     -0.11372108387674     -0.40030633096361
  H   4.87798040522179      1.01546481534230      0.02013719844064
  H   3.63148794136223     -0.98156715248454     -0.76504316340999
  H   1.16029630062870     -1.00606983113543     -0.70182450275774
