19
Coordinates from ORCA-job opt
  C   0.99055250186899      1.02881397122048     -0.01472603051983
  C   -0.47447351982899      1.05584597943269     -0.10030258418231
  C   1.70353018404786     -0.11961565441037     -0.38268278935528
  C   1.70350138507280      2.14490480461703      0.44148967462500
  C   -1.31810824144777     -0.05413869484490      0.16275134308551
  C   -1.20981265218247      2.17651516317904     -0.45467128156584
  C   -2.65425042828815      0.24069123384842      0.00888206342495
  H   -0.95715257264256     -1.02308465439897      0.48380844841096
  S   -2.88170314670446      1.86281124747425     -0.46170096739820
  H   -3.50409329515824     -0.40739510562663      0.16479287739945
  H   -0.83386021055996      3.14666036312310     -0.74697609737977
  C   3.09232658292871     -0.14977435648960     -0.29763446472576
  H   1.16476559992544     -0.98290485341821     -0.75877664089332
  C   3.79211198454902      0.96744154881878      0.15462148857566
  H   3.62967728067995     -1.04503262573881     -0.59034031718853
  C   3.09245053914519      2.11568470331031      0.52152855791946
  H   4.87374307544291      0.94308021455505      0.22163367913743
  H   3.62886978311393      2.98624034522415      0.88247352619432
  H   1.15942415003779      3.02795637012417      0.76043151443609
