19
Coordinates from ORCA-job opt
  C   0.99521969291826      0.96658744308778     -0.07589879095583
  C   -0.46559174484868      0.92934890062035     -0.21352304705273
  C   1.82345222362780      0.42294804696082     -1.06620392029819
  C   1.58870641098056      1.53646433453573      1.05796131843716
  C   -1.37273693836689      0.75029029645791      0.86274387683829
  C   -1.13448545028679      1.06912965481406     -1.41979628509269
  C   -2.68916486983259      0.75468735237666      0.45949199523456
  H   -1.06725250042030      0.59231192865819      1.88934765889920
  S   -2.82214816346742      0.98277088625443     -1.22433066209354
  H   -3.57366796679557      0.61913188969279      1.06435296298583
  H   -0.70498111847536      1.25796355145525     -2.39337399863749
  C   3.20786660685426      0.45298012907967     -0.92886055397164
  H   1.37366196043692     -0.05088212301447     -1.93262414632472
  C   3.78807907344116      1.01927762002487      0.20486103128823
  H   3.83456579249423      0.02186785965450     -1.70169887849949
  C   2.97324215128552      1.56165214031883      1.19696409225602
  H   4.86635267562927      1.03763398884964      0.31438129159095
  H   3.41710420663141      2.00969274657779      2.07909326311893
  H   0.95927695819421      1.98084235359520      1.82171279227716
