19
Coordinates from ORCA-job opt
  C   0.99140695424544      0.89631785282459      0.05951784637341
  C   -0.47377549545130      0.81167636603384      0.07199611525773
  C   1.63219580080681      2.07136870196898     -0.35438493147942
  C   1.77669906917427     -0.18749781404765      0.47297785600717
  C   -1.32624666251124      1.42619954660762     -0.88149006874957
  C   -1.20125274134845      0.12049143164810      1.02845944276444
  C   -2.66045191726588      1.19132957175904     -0.63630758454737
  H   -0.97009601407449      1.99258027144373     -1.73270034442395
  S   -2.87685913210197      0.23079120642672      0.75514143007389
  H   -3.51341359543575      1.52041237238403     -1.21142864912334
  H   -0.82057593087575     -0.40507928384927      1.89264491535120
  C   3.02102034843059      2.16147513701179     -0.34881510700823
  H   1.03491883456908      2.92544164752680     -0.65564292211871
  C   3.79262611506734      1.08027588731244      0.07318478806387
  H   3.50168955279397      3.08022795007433     -0.66618981714207
  C   3.16512533176895     -0.09488233453812      0.48303262716454
  H   4.87424190257288      1.15145748235813      0.07857877506685
  H   3.75870876123699     -0.94431918796393      0.80238974042282
  H   1.29153881839850     -1.11356580498118      0.76363588804674
