19
Coordinates from ORCA-job opt
  C   0.99717703186680      0.88463605857889     -0.05792164681696
  C   -0.46257008301689      0.79819363594615     -0.18201645004118
  C   1.81218253339640      0.93764282562950     -1.19602441104528
  C   1.60176396258325      0.94065615012830      1.20465784244857
  C   -1.38454408781203      1.42836766684511      0.69321910935782
  C   -1.11597896252908      0.08347319185130     -1.17427601870620
  C   -2.69662023818593      1.18678097236514      0.35259823972870
  H   -1.09388619398098      2.06128984835079      1.52211879018623
  S   -2.80735619001411      0.18985852477995     -1.02546725677332
  H   -3.59024331072527      1.55850542917603      0.83200243463754
  H   -0.67159580704815     -0.52459100582326     -1.94939337616625
  C   3.19459919800272      1.04127949423133     -1.07484052243158
  H   1.35231383457322      0.92888679950037     -2.17884263039722
  C   3.78548482702762      1.10313191561325      0.18600235535857
  H   3.81060096765022      1.08896886075740     -1.96597531370450
  C   2.98403905450648      1.04944321571652      1.32498653145916
  H   4.86177752921104      1.19077977459473      0.28020335525843
  H   3.43672025001078      1.08927557021852      2.30954715546142
  H   0.98363768448389      0.87812407153999      2.09401981218605
