19
Coordinates from ORCA-job opt
  C   0.99686768651224      0.89374281546708     -0.05804322282862
  C   -0.46278873685175      0.80235841588975     -0.18204069334455
  C   1.81207525973744      0.94432991421873     -1.19607735204482
  C   1.60162837746842      0.94665005780798      1.20454131043362
  C   -1.38733540849567      1.42920845164607      0.69318923449958
  C   -1.11345157209445      0.08515167356267     -1.17421788340860
  C   -2.69836515829438      1.18262031682345      0.35251413277261
  H   -1.09893760138666      2.06349496414053      1.52186948815701
  S   -2.80520359914274      0.18508458153971     -1.02548896118097
  H   -3.59369887957077      1.55056531035934      0.83167578062184
  H   -0.66628840371928     -0.52194857302348     -1.94850096547842
  C   3.19500042393381      1.04018935960554     -1.07483669129204
  H   1.35207422717666      0.93804750064524     -2.17887491677862
  C   3.78630110488915      1.09605133095789      0.18606465123902
  H   3.81137220703132      1.08495185410567     -1.96589063989605
  C   2.98444552388995      1.04768002005971      1.32495621863458
  H   4.86317479452632      1.17647914625380      0.28038174236588
  H   3.43741293542820      1.08421796959819      2.30953534968015
  H   0.98321581896220      0.88582689034211      2.09384241784838
