19
Coordinates from ORCA-job opt
  C   0.98906492346947      1.01932489173497      0.02126183555167
  C   -0.47844943251493      1.04049539137289      0.01154900358918
  C   1.68129019488244     -0.18488308871968      0.20419034507824
  C   1.72515632518917      2.20155224757413     -0.12969851701629
  C   -1.29769477369934      0.01677622632072     -0.53078982768148
  C   -1.24087604501214      2.06975728555394      0.54179659690490
  C   -2.64230168794258      0.28502874117078     -0.40578567328461
  H   -0.91256075961647     -0.86797327158358     -1.02177247471532
  S   -2.90852488676588      1.77635318443395      0.37560213514610
  H   -3.47641122552450     -0.30988375901260     -0.74770792448964
  H   -0.88845194511189      2.95412604167360      1.05330325455456
  C   3.07237614989709     -0.20423524913269      0.24322690226761
  H   1.12222803167186     -1.10394201490381      0.34452415791241
  C   3.79472578961061      0.97948109124338      0.10357603977550
  H   3.59332261373925     -1.14341548286697      0.39285782217483
  C   3.11587100981049      2.18203709883908     -0.08551343651930
  H   4.87806988089124      0.96409206324812      0.13629756938721
  H   3.67108154091913      3.10552752919682     -0.20691948139097
  H   1.19958529610698      3.13448107385693     -0.30539832724459
