19
Coordinates from ORCA-job opt
  C   0.99108140590051      0.89940163645697      0.06729569939915
  C   -0.47406684306008      0.81267404506603      0.07539194980548
  C   1.63179399061699      2.07356764421887     -0.34916254532894
  C   1.77667443333478     -0.18488509715665      0.47884924869392
  C   -1.32422674262271      1.42643478407262     -0.88059271090860
  C   -1.20376089178749      0.11928745663919      1.02867931463816
  C   -2.65897265771121      1.18929022996533     -0.64026075440644
  H   -0.96611271364826      1.99398271884034     -1.73021840158661
  S   -2.87837568447070      0.22710693196999      0.74937996908230
  H   -3.51050609008436      1.51742056656024     -1.21801635304002
  H   -0.82566047842202     -0.40666138119119      1.89377023925535
  C   3.02072922317023      2.16161266491926     -0.34992381510012
  H   1.03458605225932      2.92821328270648     -0.64898661824551
  C   3.79272659152193      1.07900846735137      0.06768198568336
  H   3.50122117899631      3.07948785305757     -0.67013837348131
  C   3.16525236984054     -0.09437453675314      0.48254820540868
  H   4.87449361980760      1.14820265542945      0.06714218444339
  H   3.75891173249174     -0.94462935602707      0.79961106045296
  H   1.29171050386687     -1.11043956612568      0.77154871523480
