19
Coordinates from ORCA-job opt
  C   0.99531770156754      0.97807020861333     -0.08167910211198
  C   -0.46564459798190      0.93508589335608     -0.21620033823757
  C   1.82317158732694      0.42944252553078     -1.06959788934096
  C   1.58868352471883      1.54556505964420      1.05346661810863
  C   -1.36933622137540      0.75169262506661      0.86219950633461
  C   -1.13793171442567      1.07204905232582     -1.42085136402000
  C   -2.68660293142882      0.74904298610715      0.46173257968288
  H   -1.06044635678800      0.59521374095435      1.88798773997474
  S   -2.82480878362224      0.97682369433570     -1.22179089945629
  H   -3.56896720632853      0.60863097018406      1.06863412288166
  H   -0.71100293576123      1.26301581591420     -2.39515881086468
  C   3.20726555250703      0.44962221641532     -0.92719708276581
  H   1.37270719982751     -0.04260494793323     -1.93661727534778
  C   3.78718898691190      1.01009311271199      0.20958181156776
  H   3.83379863499740      0.01356676953794     -1.69738300491393
  C   2.97287927578314      1.56087427674571      1.19748017767688
  H   4.86509545745044      1.01938399716491      0.32374654422569
  H   3.41693978744203      2.00577204599083      2.08109145210902
  H   0.95919203917903      1.99335795733426      1.81515621449713
