19
Coordinates from ORCA-job opt
  C   0.99606448892225      0.91005187840369     -0.05868172042704
  C   -0.46284688942472      0.81004333520086     -0.18259281058503
  C   1.81187416893812      0.95336799376661     -1.19655122778943
  C   1.60081930449697      0.95961217532563      1.20408728439013
  C   -1.39056459064918      1.43301262297395      0.69198929087427
  C   -1.10944344999427      0.08667128649386     -1.17274819773566
  C   -2.70038613233675      1.17712244555454      0.35355487885709
  H   -1.10441878105350      2.07036414957992      1.51907232491284
  S   -2.80202595891196      0.17554278206738     -1.02210639903681
  H   -3.59810057829356      1.53984655947029      0.83219649223730
  H   -0.66150364966390     -0.51903431470005     -1.94763462990561
  C   3.19578523037457      1.03508349548867     -1.07488371113569
  H   1.35290756275240      0.94901096078695     -2.17981183977756
  C   3.78752104451218      1.08257094274192      0.18615729678807
  H   3.81265338903732      1.07262417769157     -1.96590871393667
  C   2.98464276429109      1.04643886586646      1.32480378684704
  H   4.86524636755319      1.14989222677677      0.28072374977652
  H   3.43739975006714      1.07842704479315      2.30961705289440
  H   0.98187495938262      0.90405137171783      2.09331909275185
