19
Coordinates from ORCA-job opt
  C   0.99482287538739      0.85937208883640      0.01653694138661
  C   -0.46750227876064      0.74108590689829     -0.02558889628657
  C   1.66355813264146      1.73092320631929     -0.85278129711137
  C   1.74804742677861      0.12092081319075      0.93822778258354
  C   -1.35529506769555      1.81255716258477     -0.30276226862735
  C   -1.15678226128947     -0.44047773916268      0.19926719162420
  C   -2.67810669841268      1.43104057809553     -0.28035952423949
  H   -1.03561026914444      2.83156514219529     -0.48041720023328
  S   -2.84011952173902     -0.22898952145527      0.07090130517085
  H   -3.55251880089380      2.04584630213951     -0.43522941729847
  H   -0.74199254438657     -1.41958771388643      0.39236825268413
  C   3.04825637838776      1.86123157400524     -0.80001627308417
  H   1.09446820081549      2.29224760792196     -1.58625225287703
  C   3.78809300698110      1.12224469784376      0.12137713443325
  H   3.55072879513244      2.53815044050268     -1.48205163109063
  C   3.13300501941723      0.24804009188627      0.98698643292146
  H   4.86624497626901      1.22594500045431      0.16380912433131
  H   3.70027730682925     -0.32539704457760      1.71171443729981
  H   1.23792732368244     -0.53201859379208      1.63886915841319
