19
Coordinates from ORCA-job opt
  C   0.98824980303587      0.95695754109118      0.10067554796266
  C   -0.47827763999448      0.89871730443651      0.11226355071085
  C   1.74324462045467      0.20935658960257      1.01357071026579
  C   1.66149105998928      1.74427491000840     -0.84249684650944
  C   -1.29628039335540      0.95147154064075     -1.04594291130401
  C   -1.24100788946110      0.78708291948983      1.26452164293038
  C   -2.64004748649930      0.87658009122998     -0.75575307207272
  H   -0.90949967318889      1.00956676093371     -2.05547710757693
  S   -2.90719726093262      0.74962316865171      0.92291556503987
  H   -3.47279727781508      0.87318319685802     -1.44358563042701
  H   -0.89083350388887      0.76722714346465      2.28676791038676
  C   3.13392693475007      0.24998429698595      0.98576031942268
  H   1.23248966215350     -0.42982299435891      1.72634078994051
  C   3.79394295443688      1.03136993609308      0.03890492526166
  H   3.70365828567574     -0.34074907509138      1.69449592752270
  C   3.05244164671681      1.78046023668482     -0.87294162476823
  H   4.87728153471610      1.05761185358266      0.01290858222811
  H   3.55853103814857      2.39675464572578     -1.60774572036300
  H   1.08818358505825      2.34505093397067     -1.54058255865062
