19
Coordinates from ORCA-job opt
  C   0.99141006641676      0.89542384009822      0.05766474944583
  C   -0.47364886629264      0.81191707028290      0.07191358682664
  C   1.63262830571275      2.07042000810189     -0.35581883429228
  C   1.77637706132752     -0.18872246356337      0.47090942083947
  C   -1.32660396419321      1.42723362769813     -0.88055020085044
  C   -1.20082469914114      0.12147782392902      1.02934287058040
  C   -2.66092775983057      1.19407382080469     -0.63360151177972
  H   -0.97103091023424      1.99314786243551     -1.73231593638652
  S   -2.87659954333577      0.23365177854516      0.75794426876698
  H   -3.51403669688940      1.52423984406968     -1.20785725066449
  H   -0.82004829572292     -0.40456799231995      1.89320861593574
  C   3.02146672201270      2.16030881214858     -0.34948460728598
  H   1.03579859591021      2.92486806671102     -0.65692127006460
  C   3.79274121845162      1.07901538524588      0.07295216880675
  H   3.50238820518086      3.07913710315089     -0.66623272095373
  C   3.16483952883695     -0.09628235589890      0.48176195220138
  H   4.87434492140805      1.15012332856807      0.07917276088953
  H   3.75808195116137     -0.94592210448832      0.80118953177104
  H   1.29114515922108     -1.11484445551913      0.76132140621400
