19
Coordinates from ORCA-job opt
  C   0.99238634157948      0.88736631513435      0.04317384029737
  C   -0.46810728302871      0.75428433309852     -0.01505422651286
  C   1.66289736401420      1.75056233409726     -0.83321816591141
  C   1.74546151994208      0.14038509584093      0.95814762450430
  C   -1.36525845042836      1.81522354752374     -0.30284183673008
  C   -1.14572602792010     -0.43583052256907      0.20011524782067
  C   -2.68330395356941      1.41736376599246     -0.29857160440771
  H   -1.05502377260564      2.83802119029462     -0.47550662638419
  S   -2.82957971881654     -0.24506073677744      0.04846317808211
  H   -3.56345085707719      2.02094508895333     -0.46470730297796
  H   -0.72013427822652     -1.40957572706613      0.39668911132612
  C   3.05019011222101      1.85713172919065     -0.80036003977840
  H   1.09275346362967      2.31770843978274     -1.56136250794251
  C   3.79071371764313      1.10064231637888      0.10618510773836
  H   3.55495923006840      2.52432105447058     -1.49021535278279
  C   3.13287059805951      0.24376388674940      0.98694666848563
  H   4.87131537654260      1.18239928364291      0.12979603915301
  H   3.70111354477818     -0.33917377868059      1.70326786349614
  H   1.23342207319421     -0.50577761605714      1.66365498252420
