19
Coordinates from ORCA-job opt
  C   0.99277861204519      0.88199125262879      0.03817895391504
  C   -0.46804455639491      0.75158088384052     -0.01721126386888
  C   1.66298257523574      1.74750865769997     -0.83610742594279
  C   1.74596857069343      0.13593492540882      0.95381757498486
  C   -1.36333469134979      1.81451447054443     -0.30375893682814
  C   -1.14806093912790     -0.43676565828392      0.20002600860093
  C   -2.68231026545353      1.42002576604223     -0.29576712984313
  H   -1.05066128856556      2.83636044834092     -0.47769996385407
  S   -2.83176147846787     -0.24183179152818      0.05278757353478
  H   -3.56164695079001      2.02533181454041     -0.46000744599566
  H   -0.72450807356993     -1.41147184704436      0.39625725833009
  C   3.04979308946328      1.85877843682921     -0.79923826693211
  H   1.09304372854307      2.31401585261753     -1.56492567562293
  C   3.79028091237791      1.10501135483865      0.10958746679700
  H   3.55412642448081      2.52853379661605     -1.48695325346709
  C   3.13292628310951      0.24398998767959      0.98666008980153
  H   4.87048088117951      1.19107233173417      0.13697549490126
  H   3.70106048631607     -0.33769535941581      1.70411311694531
  H   1.23438468027495     -0.51218732308902      1.65786582454399
