19
Coordinates from ORCA-job opt
  C   0.99124597833369      1.03383591547157     -0.02998149222175
  C   -0.47433407815060      1.05848333226175     -0.10624824417616
  C   1.70357368830330     -0.11622460067646     -0.39384514078138
  C   1.70440096926898      2.14812174001134      0.43032845552983
  C   -1.31419105151156     -0.05318183104540      0.16174800229633
  C   -1.21412435801436      2.17791698143543     -0.45448206157185
  C   -2.65188329060883      0.23974994904264      0.01828087852209
  H   -0.95077851943174     -1.02231641401175      0.47931269155550
  S   -2.88589704616664      1.86211633984051     -0.44909468292264
  H   -3.49861664828510     -0.41089725618058      0.18032956563727
  H   -0.84232312908090      3.14927576851250     -0.74811564070327
  C   3.09156622030096     -0.15116357767587     -0.29723546984513
  H   1.16538640640042     -0.97864188786941     -0.77270742055849
  C   3.79125990639103      0.96255897695340      0.16372778807995
  H   3.62787939581392     -1.04849301781061     -0.58540858020063
  C   3.09259466789733      2.11416925304609      0.52191974987487
  H   4.87203279650273      0.93385907140441      0.24163750059630
  H   3.62854570307674      2.98290652425786      0.88785976922896
  H   1.16116538896061      3.03262573303255      0.74657533166019
