19
Coordinates from ORCA-job opt
  C   0.99525646421423      0.97593123344705     -0.08062764230935
  C   -0.46563151924841      0.93389524690660     -0.21576032277269
  C   1.82329854404618      0.42841296412521     -1.06899555991569
  C   1.58864208466304      1.54385589057500      1.05429620035305
  C   -1.36996460270351      0.75128043969617      0.86228680857188
  C   -1.13739234187010      1.07117911243530     -1.42067109805430
  C   -2.68708190746978      0.74994538165345      0.46137459731052
  H   -1.06176046666761      0.59456573259460      1.88824154089894
  S   -2.82445468957499      0.97763461939164     -1.22228395855116
  H   -3.56981885364833      0.61049721027673      1.06794379562177
  H   -0.71012948085317      1.26164973901034     -2.39492640216822
  C   3.20746546826029      0.45055184176991     -0.92751933760219
  H   1.37323583861064     -0.04397979833224     -1.93603168616897
  C   3.78742928843557      1.01203369021908      0.20874628832367
  H   3.83403565558337      0.01552364950750     -1.69825016817705
  C   2.97290848473504      1.56110026633164      1.19743608862131
  H   4.86540230421763      1.02309528003669      0.32205012032014
  H   3.41681588309529      2.00656979458432      2.08082988451165
  H   0.95924384617463      1.99095670577099      1.81646085118671
