19
Coordinates from ORCA-job opt
  C   0.99701761524214      0.88859829999684     -0.05786489688046
  C   -0.46279118940377      0.80082435447662     -0.18207654485408
  C   1.81230793072921      0.93870982893253     -1.19587486233840
  C   1.60154070659847      0.94425600211303      1.20472161771704
  C   -1.38569500203329      1.42971181504428      0.69319095205595
  C   -1.11506780596489      0.08574787843963     -1.17464466831469
  C   -2.69729718928601      1.18672927364979      0.35226468182714
  H   -1.09565511939290      2.06265907376736      1.52228600443830
  S   -2.80657697912595      0.18978250774460     -1.02594409320188
  H   -3.59167411562904      1.55693124902685      0.83146068728577
  H   -0.66979225895369     -0.52157513670323     -1.94981159764826
  C   3.19499742767812      1.03809397984955     -1.07460762612298
  H   1.35240632098888      0.93026948401473     -2.17867239949023
  C   3.78594906105210      1.09823912758914      0.18629335795343
  H   3.81128306063358      1.08309545588492     -1.96569370354291
  C   2.98412216063311      1.04875166782790      1.32517497874900
  H   4.86254744243387      1.18205226464085      0.28060415604199
  H   3.43677750564930      1.08787217134049      2.30978533429062
  H   0.98310042815077      0.88395170236414      2.09401162203464
