20
Coordinates from ORCA-job mp2_opt
  C   0.55119309265154     -0.08131811396435      0.22260133056906
  C   2.78454497297190      0.34364469761297      1.00319573375208
  C   3.28809260686534     -0.06104877625189     -0.23100797037730
  H   3.46036045674995      0.66846762246431      1.78553491153097
  H   4.35705627357794     -0.04995712534903     -0.40954368168029
  C   2.41808159327852     -0.47755561619844     -1.23910626931596
  H   2.81037250074412     -0.78827411363159     -2.20058340269350
  C   -2.79651066895350     -1.09062590472499      0.03075288881537
  H   -3.50437281133843     -1.90695963825573      0.03890591120692
  C   -2.97638911624538      0.21827603979853     -0.26195247771576
  H   -3.87021457707734      0.69341708752612     -0.63036999143281
  C   -1.70209623313866      0.89432132034953     -0.06571420920828
  C   1.04532128260174     -0.48673763751298     -1.01656022418981
  H   0.35238368467901     -0.80356520654816     -1.78810279291166
  C   1.41146585000231      0.32564967517609      1.23696011052693
  H   0.99429058278120      0.63830375181984      2.18707806930917
  N   -0.85248970304274     -0.10376420523691      0.47423881806190
  N   -1.48067337559473     -1.35200935032287      0.34360223210492
  H   -1.29577929846243     -1.96793126472693      1.13085922796751
  O   -1.34502911305036      2.03901375797648     -0.29446721431946
