20
Coordinates from ORCA-job mp2_opt
  C   0.56095904487346     -0.09770594361054     -0.08240339793414
  C   2.66510327911468     -1.20319721205113      0.32436358109794
  C   3.34402698308654     -0.01382442206693      0.07108270224521
  H   3.21465368399288     -2.09959285006407      0.58809810185054
  H   4.42533809805048      0.02028838988632      0.13026006195907
  C   2.62072256905045      1.13233164584397     -0.25356028955778
  H   3.13966596434729      2.06347599910335     -0.44990745924584
  C   -2.82484156693704     -1.11857063791402     -0.11295424950650
  H   -3.51925279195560     -1.93651491384377     -0.23427582553153
  C   -3.04196772420922      0.18548364264517      0.17197956659767
  H   -3.97992175084547      0.66163197386355      0.40362868645991
  C   -1.75914572584976      0.87265799620255      0.15074674058399
  C   1.23268781201627      1.10151466147358     -0.34173163915633
  H   0.66554428707341      1.98668971998632     -0.59232567590397
  C   1.27593296934357     -1.25105017715109      0.25717341251585
  H   0.74787679732658     -2.16629705492912      0.49430113526738
  N   -0.83958292098557     -0.14100485955032     -0.18839728464842
  N   -1.47418237125142     -1.37490533645886     -0.23299577188529
  H   -1.17094957144795     -1.94912416647850     -1.01647137138883
  O   -1.46454706479359      2.03754654511355      0.38283297618107
