20
Coordinates from ORCA-job mp2_opt
  C   0.56382421773047     -0.09460245628577     -0.04240899262558
  C   2.68753733136857     -1.20567951210090      0.24083653736311
  C   3.35262223725265      0.00054790653684      0.03700473992568
  H   3.24846806306004     -2.11219812210222      0.43754251602753
  H   4.43486605026114      0.03963823446146      0.06945309328623
  C   2.61261722688364      1.15713337663815     -0.20044453779933
  H   3.11940845996614      2.10228771607654     -0.35791717411955
  C   -2.81947434393629     -1.13713345299200     -0.10079666675772
  H   -3.50340740277708     -1.96528103405259     -0.21164558778434
  C   -3.05389731832866      0.17619839790394      0.11757701423861
  H   -4.00268632815373      0.65733342135897      0.28597204441686
  C   -1.77487851754015      0.87138203832589      0.11541659247284
  C   1.22277845932035      1.12243197523745     -0.25176294288936
  H   0.64438791692986      2.01615385657412     -0.43622963874641
  C   1.29753030581502     -1.26057000883284      0.20561694366510
  H   0.78742776415165     -2.19332723077842      0.41122174245323
  N   -0.83658967113441     -0.15193690934761     -0.12048026514750
  N   -1.46296358938411     -1.38956944935889     -0.15189934718252
  H   -1.12492784397601     -1.98690097733964     -0.90337216565485
  O   -1.50237001750907      2.05160323007750      0.29568309485798
