20
Coordinates from ORCA-job mp2_opt
  C   0.54396151065136     -0.08542507302743      0.27455320131599
  C   2.43895876901020     -1.04388560651490     -0.85329419792217
  C   3.27513194043836     -0.12259113128243     -0.22276071676672
  H   2.85341156443308     -1.77206842808442     -1.54100435093622
  H   4.34206269573122     -0.14111590996688     -0.41192826796985
  C   2.73736962624277      0.82341942497642      0.64724497731111
  H   3.38373303886634      1.54711518936522      1.13001479887571
  C   -2.83029833111038     -1.00326053265920      0.24266784393502
  H   -3.57076814888282     -1.76711081840192      0.43127353425982
  C   -2.95054052467208      0.19512139587161     -0.37450425304879
  H   -3.81372996876238      0.58898325586205     -0.88456144674937
  C   -1.65940009123858      0.86170743865178     -0.30182314564309
  C   1.36825362912312      0.84412390788167      0.90120947976451
  H   0.92709209634225      1.57485448478663      1.56827874154505
  C   1.06744787175207     -1.01716052917503     -0.62252527225715
  H   0.40101222994636     -1.71517666024750     -1.11630174544659
  N   -0.85955762031731     -0.00204542900624      0.49566875603793
  N   -1.53563417962104     -1.21838244857210      0.65959183345701
  H   -1.39800427573759     -1.62095706359251      1.58280546008484
  O   -1.25301083219492      1.90536453313518     -0.78463522984704
