20
Coordinates from ORCA-job mp2_opt
  C   0.56437128794356     -0.09654496626427     -0.05082619445682
  C   2.61193098509602      1.15879307204439     -0.19486205911527
  C   3.35297063006732      0.00174152303179      0.03665128514160
  H   3.11772117210101      2.10577567883559     -0.34434303322453
  H   4.43515965237704      0.04166249014972      0.06979461743674
  C   2.68882422018356     -1.20608561036647      0.23420573333387
  H   3.25031011124644     -2.11258716104104      0.42939813527246
  C   -2.81982560266212     -1.13782532181396     -0.09708300610531
  H   -3.50378319796822     -1.96635652628157     -0.20479890545686
  C   -3.05395923259376      0.17632402540494      0.11637900779407
  H   -4.00270488260545      0.65857518290368      0.28174455074785
  C   -1.77487615336061      0.87152646493047      0.11187756072215
  C   1.29892559391385     -1.26181523199981      0.19880225355333
  H   0.78988860918037     -2.19568299807668      0.40191237623395
  C   1.22205408527120      1.12349120439899     -0.24616924721446
  H   0.64292584178568      2.01802118287230     -0.42398678087860
  N   -0.83651509588394     -0.15334533255829     -0.11554497086620
  N   -1.46328849107368     -1.39069987988340     -0.14588870753858
  H   -1.12445468083525     -1.98977161297803     -0.89560058257517
  O   -1.50328285218301      2.05302781669167      0.28576996719580
