20
Coordinates from ORCA-job mp2_opt
  C   0.54814412916415     -0.04199525474491      0.22881095662128
  C   2.75021249949131      0.81103975010299      0.67585267952826
  C   3.28864793211965     -0.12142855115772     -0.20852456940680
  H   3.39999101258293      1.50676212389339      1.19394711199990
  H   4.35826296455347     -0.15136104442801     -0.38034616111636
  C   2.45034734394937     -1.01644799170039     -0.87284476308470
  H   2.86695662373488     -1.74153292867436     -1.56251420059837
  C   -2.80429083016143     -1.04234522614179      0.27900114028752
  H   -3.52003834307914     -1.82440729432623      0.48735194523129
  C   -2.97054492324080      0.15207591811506     -0.33512237173256
  H   -3.85632570887091      0.52375229555434     -0.82259520597826
  C   -1.69447969586984      0.85012825181677     -0.29667052125950
  C   1.07579439949441     -0.97743318505917     -0.66136277595893
  H   0.40920624721500     -1.66198655424624     -1.17336849306770
  C   1.37781910753240      0.84354249543610      0.90999257873720
  H   0.93706822513607      1.55734411275118      1.59553666277663
  N   -0.85305367455373      0.00760529967664      0.47872930007644
  N   -1.49389345987720     -1.22518551795271      0.66109217172192
  H   -1.32119292251115     -1.62302268256786      1.58054993342877
  O   -1.32758692680945      1.90397198365289     -0.78956041820603
