20
Coordinates from ORCA-job mp2_opt
  C   0.56565016330112     -0.09366186768645     -0.02127933040050
  C   2.70722021097833     -1.20822862074457     -0.11861255625558
  C   3.35926977922935      0.01412432194583      0.01703339542336
  H   3.27805360937555     -2.12462683650182     -0.21599660757050
  H   4.44170771962201      0.05812267651186      0.02850820173558
  C   2.60400851056121      1.17962071006908      0.12629234516472
  H   3.09852691787737      2.13873466103989      0.22909462988194
  C   -2.81378104820201     -1.15380002409849      0.08807825002501
  H   -3.48664452772506     -1.99206886823531      0.19001671699296
  C   -3.06399622091858      0.16822210970125     -0.03365080274350
  H   -4.02201742067231      0.65554490101505     -0.10178975980982
  C   -1.78883694155258      0.86999176995682     -0.07329910955060
  C   1.21340643491442      1.14068021331420      0.11618916969297
  H   0.62506893470380      2.04239594344140      0.20347066574107
  C   1.31719668626977     -1.27028717183540     -0.13539094451114
  H   0.83011556567630     -2.22430312240756     -0.29273555363658
  N   -0.83498772072614     -0.16125702053565      0.00774511620509
  N   -1.45547152366820     -1.40182793091159      0.02818624362966
  H   -1.06871004804265     -2.02730115868365      0.73189002608677
  O   -1.53888508100169      2.06432631464512     -0.18554009610090
