20
Coordinates from ORCA-job mp2_opt
  C   0.55740195008338     -0.20513048081917      0.09375109730656
  C   2.78000995394571     -0.67501672563121      0.88325059205205
  C   3.30508389900336      0.08399357836153     -0.16053631907202
  H   3.44260305458175     -1.14920622498686      1.59786352449016
  H   4.37828242251975      0.19866081015975     -0.25920463859356
  C   2.45194716928166      0.70327804727513     -1.07417718227100
  H   2.86101536120541      1.30262489476464     -1.87915541373092
  C   -2.82112542819250     -0.87444232123418     -0.64575704107811
  H   -3.53698326130374     -1.51546967644519     -1.13924144625438
  C   -2.99710497807339      0.30712345235496     -0.00935332298124
  H   -3.90170209654372      0.88726938682155      0.06510314484126
  C   -1.70457658895634      0.72582190473662      0.51588686591884
  C   1.07406885111556      0.56040796831749     -0.95023935145746
  H   0.39382800439232      1.04074198146306     -1.64449026049630
  C   1.40077856658512     -0.81688750362377      1.01642875612686
  H   0.96817307319180     -1.38545294399029      1.83186501803731
  N   -0.85054204631921     -0.35860351977660      0.23344473703754
  N   -1.49318376309660     -1.24613225221205     -0.63897820289056
  H   -1.27850863301809     -2.22044590816960     -0.44240053818934
  O   -1.34197951040223      1.75910453263421      1.05911498120430
