20
Coordinates from ORCA-job mp2_opt
  C   0.55065038791076     -0.08832315722809     -0.16258483932151
  C   2.65984197795915      1.04242509987477     -0.39408420655149
  C   3.31577980755871     -0.06359817851556      0.14392924641410
  H   3.22663243279105      1.91504054949984     -0.69731065145207
  H   4.39277458057918     -0.05368228964651      0.26275272165780
  C   2.57982611858400     -1.18181301109775      0.53016407957770
  H   3.08200737908411     -2.04364737830236      0.95470981036673
  C   -2.82517459399037     -1.07396996091586     -0.15681511428732
  H   -3.54007222468753     -1.87054314865664     -0.30180198055679
  C   -3.00226956682835      0.19200990842363      0.28686600261790
  H   -3.90740220114624      0.63541357989448      0.66691566260240
  C   -1.71819360654952      0.87201971388099      0.22167145260699
  C   1.19543590156726     -1.19900817420272      0.38601610818404
  H   0.61356037120103     -2.05555368479930      0.70362237108541
  C   1.27928144977871      1.03200268598230     -0.56581499586232
  H   0.75797694312046      1.88085176728276     -0.98840343891873
  N   -0.84868837898668     -0.08637270362221     -0.35808109110893
  N   -1.49833755800793     -1.31666907100617     -0.43811869441230
  H   -1.27968453895899     -1.82268919899901     -1.29277499488239
  O   -1.37240468097882      1.99020965215340      0.57018455224078
