20
Coordinates from ORCA-job mp2_opt
  C   0.54998661963759     -0.04590401684460      0.23790343804850
  C   2.77579085299793      0.62151227324129      0.85152787089783
  C   3.28534302731145     -0.10450875271986     -0.22278469005499
  H   3.44623138572904      1.16518070917228      1.50687541988108
  H   4.35366176224260     -0.12594503069313     -0.40386112537387
  C   2.42172386354487     -0.80278407686024     -1.06707352139061
  H   2.81759707139938     -1.36398151824096     -1.90561765851110
  C   -2.79846710233777     -1.06217844802710      0.23031895408646
  H   -3.51092266789795     -1.85850019558657      0.39051999067114
  C   -2.96965715060364      0.16542641707910     -0.31262907827201
  H   -3.85717889542188      0.56252715781491     -0.77632229118763
  C   -1.69403000062703      0.86222497353445     -0.23799799986696
  C   1.04959441739704     -0.77304298430001     -0.84199270557030
  H   0.36187300171056     -1.30527607235748     -1.48974134720027
  C   1.40400691355467      0.64323504186790      1.09252232270189
  H   0.98299492062994      1.20045820043970      1.92103456927425
  N   -0.85256653112512     -0.01539421267384      0.49406667510144
  N   -1.48662609086303     -1.26262825649553      0.60012808440061
  H   -1.31284910276078     -1.71529408023085      1.49356919687208
  O   -1.32713529451786      1.93839087188054     -0.68071410450756
