20
Coordinates from ORCA-job mp2_opt
  C   0.54942733637586     -0.10307239852622     -0.19175879025701
  C   2.57113829241210     -1.18694993655278      0.53727991223101
  C   3.30933223567559     -0.06820819163424      0.15614033302986
  H   3.06964810474106     -2.04465030490617      0.97435829144628
  H   4.38510839079762     -0.05652018843791      0.28548267984997
  C   2.65709341496742      1.03649470141880     -0.38855460645996
  H   3.22472080869815      1.91244459381468     -0.68034312114441
  C   -2.83551652266112     -1.05667422402655     -0.14023096413909
  H   -3.55962481550410     -1.84623598165254     -0.27751868597769
  C   -2.99464381815640      0.20971382073508      0.30901227039508
  H   -3.89051276157927      0.66084454139649      0.70170499349588
  C   -1.70547496409847      0.87859629866592      0.22855393015017
  C   1.27783439627180      1.02506843142855     -0.57206479973833
  H   0.75905604968396      1.87551275727471     -0.99427322264138
  C   1.18821519377446     -1.20499294353373      0.38180108863656
  H   0.60328424800008     -2.05913912367220      0.70038624273884
  N   -0.85259208065704     -0.08722203443167     -0.36238268400049
  N   -1.51474675208072     -1.31072432863006     -0.43968263377073
  H   -1.31204842042652     -1.81521494796620     -1.29912595497685
  O   -1.34602333623448      1.99311345923603      0.57506272113229
