20
Coordinates from ORCA-job mp2_opt
  C   0.56389912271670     -0.09459788166032      0.04247457452566
  C   2.68765684689423     -1.20554059495313     -0.24095688601093
  C   3.35268553659961      0.00070350837885     -0.03703862476952
  H   3.24862903689265     -2.11201125948098     -0.43776570738332
  H   4.43492593081719      0.03985422209013     -0.06953016089994
  C   2.61263083296828      1.15722833246425      0.20054301039299
  H   3.11938267943013      2.10239283728901      0.35808275379884
  C   -2.81934072910825     -1.13732641876558      0.10084604649001
  H   -3.50322370943556     -1.96552583330828      0.21161804945814
  C   -3.05384313277194      0.17601309930924     -0.11738892379638
  H   -4.00266796721893      0.65710178555932     -0.28571625029128
  C   -1.77486584218680      0.87127269600671     -0.11518097732337
  C   1.22279605449822      1.12245172337806      0.25191456174738
  H   0.64436996899744      2.01612910385206      0.43648535432343
  C   1.29765461721101     -1.26050687010810     -0.20568432201875
  H   0.78758322888852     -2.19326685591765     -0.41135199122063
  N   -0.83651189724812     -0.15201478081947      0.12059481252307
  N   -1.46281035840733     -1.38969224779936      0.15189832567535
  H   -1.12475300987720     -1.98705541644968      0.90333832916860
  O   -1.50242920965984      2.05152785093492     -0.29533297438934
