20
Coordinates from ORCA-job mp2_opt
  C   0.55370400363644     -0.18638637402474      0.15566837121801
  C   2.42708713253355      0.20171491521116     -1.29996808800480
  C   3.29335668232077      0.04366295684539     -0.21785517484376
  H   2.82310489754843      0.41990102977696     -2.28497945567593
  H   4.36359745619997      0.13231381458963     -0.36417844552728
  C   2.78465906210636     -0.22273032238959      1.05138934698817
  H   3.45714215762506     -0.33671978468863      1.89358094779310
  C   -2.81551757542063     -1.00514060175193     -0.39544765565372
  H   -3.53318324876102     -1.75080480784000     -0.70525845153209
  C   -2.98265522618466      0.31004767428218     -0.12536215240415
  H   -3.87682744949878      0.89846910287425     -0.24573298294547
  C   -1.69441477406875      0.84361666686050      0.29492879263507
  C   1.40946307502195     -0.33652479558473      1.24200025588326
  H   0.98828817401157     -0.52941643140371      2.22186690479199
  C   1.05299986761314      0.09295567312976     -1.11570176129958
  H   0.36264864113848      0.22105117647151     -1.94208726196572
  N   -0.85234235414922     -0.29050235256999      0.36290497734888
  N   -1.49657144596411     -1.37680801667485     -0.24750622585726
  H   -1.30664826459507     -2.25950149559558      0.21997150108897
  O   -1.32562481111347      1.98327297248242      0.53345455796229
