20
Coordinates from ORCA-job mp2_opt
  C   0.56254357667331     -0.09615965822565     -0.06280942551927
  C   2.67734673617039     -1.20453909049684      0.28232435737542
  C   3.34870632435725     -0.00594311308294      0.05443360936626
  H   3.23313730686422     -2.10635106988194      0.51238786296493
  H   4.43054258896352      0.03098472927703      0.10058024410217
  C   2.61625966571440      1.14582534138258     -0.22642975425361
  H   3.12861147892996      2.08458815074612     -0.40290974023890
  C   -2.82209167785525     -1.12852032545765     -0.10629762394112
  H   -3.51113646237842     -1.95179267910991     -0.22183160797307
  C   -3.04826525462994      0.18062807835997      0.14503676965698
  H   -3.99193615540247      0.65959250290349      0.34547039396259
  C   -1.76739596385580      0.87194622278709      0.13224688830837
  C   1.22723793767520      1.11276407188405     -0.29671985724340
  H   0.65398361218837      2.00257539469936     -0.51398165971954
  C   1.28768604956521     -1.25631382252278      0.23080479755111
  H   0.76891935640525     -2.18076961555225      0.45195033481046
  N   -0.83789424160203     -0.14725568636326     -0.15536272331145
  N   -1.46813981666422     -1.38310327258675     -0.19253292656160
  H   -1.14757712500033     -1.96947217703623     -0.96003976810734
  O   -1.48423593611860      2.04509901827650      0.33768582877101
