20
Coordinates from ORCA-job mp2_opt
  C   0.55279641511962     -0.09116147066345      0.14560778420864
  C   2.64941223841500      1.06615382415682      0.36060204013524
  C   3.32242094880345     -0.05222168054677     -0.12872608584281
  H   3.20426576877678      1.95473046835935      0.63857056936646
  H   4.40061454000861     -0.03638763316633     -0.23522043641598
  C   2.60092453024820     -1.19001811607690     -0.48303489983223
  H   3.11530453820804     -2.06209200366077     -0.87043853369679
  C   -2.82538148693000     -1.08453706364446      0.14247303524292
  H   -3.53579725612397     -1.88642717112324      0.27950133141235
  C   -3.01176727374486      0.19228681944063     -0.26455565280656
  H   -3.92464633751936      0.64466936255544     -0.61423321654592
  C   -1.72794089953232      0.87364498496199     -0.20481663018388
  C   1.21513106128042     -1.21477561675057     -0.35496865853786
  H   0.64600794892495     -2.08698698670914     -0.65214666711805
  C   1.26695720210390      1.05064643914403      0.51545545194910
  H   0.73399090403278      1.91032539744580      0.89898932236939
  N   -0.84667824482434     -0.10032747631445      0.32517644516466
  N   -1.49271325923511     -1.33184926745309      0.39185481516984
  H   -1.25659063428874     -1.85642392122710      1.23069446166419
  O   -1.39365570372302      2.00399111127221     -0.52622647570272
