20
Coordinates from ORCA-job mp2_opt
  C   0.55972704778773     -0.09710940305157     -0.09397784156658
  C   2.62499002021690      1.12155604802147     -0.27693858176570
  C   3.34066540028130     -0.01972147499961      0.08061582696224
  H   3.14949104050818      2.04568853570413     -0.49079068421044
  H   4.42156678368523      0.01179323035809      0.14836524076154
  C   2.65534399075726     -1.20082290347445      0.35485755937363
  H   3.19972690937851     -2.09293186526160      0.64274899571153
  C   -2.82524006154448     -1.11286543063249     -0.12019671366361
  H   -3.52269369523403     -1.92763107729960     -0.24569909382310
  C   -3.03707564946006      0.18683115849928      0.18849228126822
  H   -3.97108678621478      0.65942431347954      0.44234978578799
  C   -1.75359065815713      0.87232442130060      0.16159227834864
  C   1.26656945598031     -1.24538920311308      0.27679362334139
  H   0.73153017042955     -2.15330101958746      0.52627641436890
  C   1.23778211446352      1.09263357092389     -0.37733007436583
  H   0.67572170885765      1.97342363449803     -0.65426468438652
  N   -0.84054198986405     -0.13523778658310     -0.21529792288355
  N   -1.47713772414064     -1.36856951216476     -0.26417733433000
  H   -1.18589259228116     -1.93396547914009     -1.05846354516434
  O   -1.45144348544980      2.03087124252279      0.41297347023559
