20
Coordinates from ORCA-job mp2_opt
  C   0.55907741008624     -0.09875248370585     -0.10341471424277
  C   2.65024701950251     -1.20177970318676      0.36609790250128
  C   3.33849909502330     -0.02314795633825      0.08831499237222
  H   3.19199309902054     -2.09241194921676      0.66339508724119
  H   4.41909776710706      0.00728932507327      0.16128327105681
  C   2.62639672538885      1.11707771584667     -0.27955443266376
  H   3.15327449298250      2.03955794548802     -0.49463655483634
  C   -2.82713857507956     -1.10795823213943     -0.11781474599792
  H   -3.52690095005902     -1.92082553215063     -0.24286206748508
  C   -3.03465358050726      0.19038354829036      0.19958017440732
  H   -3.96604252021754      0.66278565585413      0.46324634691974
  C   -1.75032521184522      0.87399608501930      0.16727221890047
  C   1.23961737147828      1.08938328877890     -0.38661622465624
  H   0.67998085991970      1.96952610265042     -0.67052762073449
  C   1.26180491194026     -1.24470340749245      0.28197505387236
  H   0.72361369485589     -2.14998347403650      0.53421465942816
  N   -0.84164919562501     -0.13266094610047     -0.22341633916954
  N   -1.48068297833186     -1.36490664657416     -0.27333992602247
  H   -1.19614752297316     -1.92707973218414     -1.07229305428040
  O   -1.44413991266649      2.03029139612432      0.42366197338944
