20
Coordinates from ORCA-job mp2_opt
  C   0.55071382323391     -0.08847653174165      0.16236477588739
  C   2.65985560805776      1.04235053344161      0.39393100626717
  C   3.31584693094913     -0.06362032040305     -0.14412867969565
  H   3.22662070728928      1.91496755982769      0.69719964399335
  H   4.39284243963486     -0.05363276333797     -0.26293823866986
  C   2.57994643171432     -1.18184968927693     -0.53041943758266
  H   3.08216282116921     -2.04364538763088     -0.95500152717025
  C   -2.82506002489122     -1.07430350011266      0.15666465962446
  H   -3.53993660557473     -1.87089289829982      0.30166607875981
  C   -3.00223613854119      0.19166095826528     -0.28701902043098
  H   -3.90741423708109      0.63499402299212     -0.66704455562738
  C   -1.71819070703867      0.87175200320989     -0.22186148038789
  C   1.19555613192050     -1.19910641900139     -0.38628176244324
  H   0.61372280898633     -2.05566685468910     -0.70392499389199
  C   1.27929561960850      1.03186163536051      0.56565376662902
  H   0.75795353467761      1.88067280937012      0.98827327472874
  N   -0.84862077848025     -0.08660059884047      0.35784372851264
  N   -1.49819672752544     -1.31694050536387      0.43792312345842
  H   -1.27949412632288     -1.82289359621254      1.29260858438323
  O   -1.37246851178596      1.98995454244309     -0.57039294634433
