20
Coordinates from ORCA-job mp2_opt
  C   0.56550515477877     -0.09653152555390     -0.04976203550952
  C   2.71182047788782     -1.20957090673917     -0.02948276670864
  C   3.36075106395639      0.01964510327084      0.04123115636426
  H   3.28427931469304     -2.12977243550489     -0.05470108156394
  H   4.44265080315332      0.06634545126944      0.07297748559529
  C   2.60168657314663      1.18727733952077      0.05785240143613
  H   3.09219761093751      2.15268357710237      0.10738910566675
  C   -2.81460284254623     -1.15712861518188      0.05606852776238
  H   -3.48608550024077     -1.99935239219825      0.13127211205854
  C   -3.06498130674205      0.16909574525849      0.01401614935420
  H   -4.02273265561400      0.66157886176346      0.00575657385806
  C   -1.78969183881148      0.87050299942224     -0.02677059579075
  C   1.21173077633870      1.14500865567461      0.01806743471232
  H   0.62198725618373      2.04968738710378      0.03483139021916
  C   1.32243148018430     -1.27551164875925     -0.06916390089772
  H   0.84774904678798     -2.24274658587916     -0.17395209717873
  N   -0.83557913888544     -0.16397233465748     -0.04497300607129
  N   -1.45885288198715     -1.40380463764097     -0.06055312546683
  H   -1.05734047790698     -2.05816351381764      0.60744480871591
  O   -1.54413291531409      2.06996247554659     -0.07385253655557
