20
Coordinates from ORCA-job mp2_opt
  C   0.55521786772664     -0.09355854007671      0.12803027676402
  C   2.64012574614790      1.08709008231727      0.33090353812947
  C   3.32903243155042     -0.04062881583820     -0.11268765486693
  H   3.18379752683437      1.98928614612005      0.58626844388172
  H   4.40830219196347     -0.01901413797398     -0.20622915997074
  C   2.62102205279071     -1.19513035778270     -0.43849448831786
  H   3.14666882578378     -2.07520236881533     -0.79109247524491
  C   -2.82566535335507     -1.09446881407980      0.13305596288506
  H   -3.53162780389544     -1.90097358269381      0.26537251799046
  C   -3.02112965115526      0.19132170524240     -0.23964456841535
  H   -3.94178438293930      0.65151441731527     -0.55721691920524
  C   -1.73721201548300      0.87379921293551     -0.19002264694648
  C   1.23400250811519     -1.22716500089921     -0.32728116700724
  H   0.67706198611264     -2.11284817060102     -0.60704861180003
  C   1.25586372970169      1.06664530023767      0.46764471428313
  H   0.71199000695963      1.93481366542127      0.81411770149400
  N   -0.84451133530476     -0.11328964562938      0.28908655805291
  N   -1.48715592780643     -1.34554131752102      0.34746529584053
  H   -1.23235008360914     -1.88565307742935      1.17101551939481
  O   -1.41407532013801      2.01450329975107     -0.48752583694133
