20
Coordinates from ORCA-job mp2_opt
  C   0.56477040457609     -0.09357856265893     -0.02071311945426
  C   2.69591254861721     -1.20662657962011      0.20015906239349
  C   3.35567201058458      0.00590070749736      0.01853212365257
  H   3.26110115859579     -2.11704164966088      0.36394191921173
  H   4.43817797906212      0.04679631127335      0.03619830316674
  C   2.60936265641027      1.16630442423851     -0.17615645622635
  H   3.11136045960439      2.11678739188903     -0.31598190987391
  C   -2.81721405033375     -1.14411979370644     -0.09722030399498
  H   -3.49661750398724     -1.97631223824120     -0.20549413898364
  C   -3.05859893961240      0.17256762984650      0.08938651937763
  H   -4.01168034776684      0.65567675316142      0.22445721888494
  C   -1.78111507146385      0.87078056577089      0.10135006082944
  C   1.21894795662552      1.13020024844496     -0.20689534782395
  H   0.63625480497926      2.02710826775294     -0.35901273978142
  C   1.30570523422813     -1.26415885295388      0.18246652524500
  H   0.80376463345723     -2.20442707164417      0.37311319502911
  N   -0.83568079625202     -0.15567924502790     -0.08269777984407
  N   -1.45904775855282     -1.39468104226773     -0.11108582168386
  H   -1.10332185206872     -2.00147647888551     -0.84672378999641
  O   -1.51785252670299      2.05668721479179      0.25903047987220
