20
Coordinates from ORCA-job mp2_opt
  C   0.56520925589048     -0.09610188236813     -0.03538342169078
  C   2.60905365902332      1.16713274705516     -0.17020831222552
  C   3.35574822786261      0.00648918053138      0.02109723050142
  H   3.11053321800077      2.11926336433979     -0.30028429330475
  H   4.43817181053827      0.04807754868639      0.04168460950466
  C   2.69631683802303     -1.20725083825191      0.19606633143217
  H   3.26157563210916     -2.11728713893178      0.36169586646394
  C   -2.81807113694133     -1.14396654202112     -0.09200046763754
  H   -3.49810653055992     -1.97613508747764     -0.19633690445377
  C   -3.05822724047377      0.17328721804017      0.09203116269335
  H   -4.01072069142440      0.65753256745088      0.22710463903822
  C   -1.78045320772454      0.87115286274095      0.09912403982015
  C   1.30625284055570     -1.26535839464888      0.17581168606090
  H   0.80461998865305     -2.20617139152430      0.36444072830297
  C   1.21864039938820      1.13062348769465     -0.20345393155826
  H   0.63567654734489      2.02824139992644     -0.34989468938631
  N   -0.83577692895664     -0.15677440674199     -0.07962089991415
  N   -1.46009027467490     -1.39525114012847     -0.10730891989560
  H   -1.10542821496790     -2.00310320783319     -0.84254274588041
  O   -1.51720619166607      2.05790965346158      0.25100429212932
