20
Coordinates from ORCA-job mp2_opt
  C   0.55517793042143     -0.09356138329287     -0.12805382301944
  C   2.64011866858217      1.08701942194405     -0.33102499708635
  C   3.32900022463134     -0.04070216399866      0.11259576770184
  H   3.18380139110101      1.98919354144416     -0.58644170109786
  H   4.40827233144131     -0.01913031725096      0.20611485175807
  C   2.62096064788205     -1.19516896961549      0.43846693293885
  H   3.14660027373199     -2.07523482003261      0.79108972485528
  C   -2.82574102444706     -1.09436705228583     -0.13300719997413
  H   -3.53173601905398     -1.90084918700347     -0.26528531427663
  C   -3.02116321943995      0.19144188585375      0.23964253703982
  H   -3.94178764116364      0.65170089453925      0.55720600130801
  C   -1.73722077227628      0.87387545750755      0.18999748602562
  C   1.23393829712799     -1.22716819399135      0.32729106780368
  H   0.67697621005219     -2.11282221105560      0.60710624071867
  C   1.25585265347230      1.06660686418066     -0.46773141980426
  H   0.71199925390180      1.93477688772092     -0.81423167918926
  N   -0.84455467647813     -0.11325738989513     -0.28907948712912
  N   -1.48723788301979     -1.34549610501310     -0.34740823298246
  H   -1.23246824028015     -1.88562520997721     -1.17095943505806
  O   -1.41404940618662      2.01458005022193      0.48746867946775
