20
Coordinates from ORCA-job mp2_opt
  C   0.56557884661240     -0.09365704840322      0.02129392525693
  C   2.70711005412642     -1.20830693012316      0.11855234652864
  C   3.35920428857087      0.01402784302938     -0.01704324945311
  H   3.27790382385106     -2.12473543699171      0.21588969125142
  H   4.44164549353646      0.05798711699515     -0.02852209686643
  C   2.60398800404082      1.17955686153182     -0.12625223785168
  H   3.09853938665861      2.13865811352566     -0.22902410983827
  C   -2.81389985238439     -1.15365120967747     -0.08799552064042
  H   -3.48678957188126     -1.99190084225753     -0.18992345381213
  C   -3.06405580915423      0.16837754076163      0.03377448975381
  H   -4.02205131012317      0.65574785416228      0.10195262279621
  C   -1.78887329856079      0.87009779032104      0.07338324677609
  C   1.21338448193203      1.14066191670567     -0.11613704789163
  H   0.62509045566694      2.04240932128925     -0.20338458802909
  C   1.31708066387102     -1.27031433077932      0.13534604282787
  H   0.82998498280073     -2.22432997146172      0.29265284639581
  N   -0.83506330630199     -0.16118695058609     -0.00770937662327
  N   -1.45559445785146     -1.40172872655159     -0.02815588189922
  H   -1.06890057240539     -2.02720566540153     -0.73189470841444
  O   -1.53886230300468      2.06441875391145      0.18562905973290
