20
Coordinates from ORCA-job mp2_opt
  C   0.56557210914390     -0.10088056433991      0.01978987387711
  C   2.60248526072438      1.18786249652098      0.04891425835827
  C   3.36258603249711      0.02340077040588     -0.02818539188642
  H   3.09221868175501      2.15389513893746      0.09296012247504
  H   4.44457097597924      0.07280042694029     -0.05143942082571
  C   2.71416351096206     -1.20749030554716     -0.06247193674167
  H   3.28718510524225     -2.12669919641076     -0.10451520714855
  C   -2.82123898816315     -1.15185253297798      0.02544894286824
  H   -3.49779565173618     -1.99341972841097      0.01929571938069
  C   -3.06429896312453      0.17500855273815     -0.03014375669397
  H   -4.01936842909424      0.67203544455115     -0.05583480563043
  C   -1.78489251755022      0.86970593590050     -0.05033333996808
  C   1.32467997314358     -1.27712616127102     -0.03467363164450
  H   0.85767639899922     -2.25344079331800     -0.01864532121098
  C   1.21262839026253      1.14053583423268      0.08342951105115
  H   0.62234318098420      2.04293312127832      0.14361491577960
  N   -0.83574332990162     -0.16539135623222      0.04943770132559
  N   -1.46616733722996     -1.39787333677932      0.15261976719296
  H   -1.07726046689827     -2.10043607406365     -0.47136875789883
  O   -1.53324793599533      2.06741932784559     -0.10482224265951
