20
Coordinates from ORCA-job mp2_opt
  C   0.56315306754171     -0.09719497383662     -0.06541646587382
  C   2.61527804084658      1.14850326121280     -0.22114806970466
  C   3.34950881120076     -0.00400343322300      0.05166671684785
  H   3.12614028114932      2.08924587115609     -0.39129996780602
  H   4.43135727219218      0.03388134483621      0.09665217075826
  C   2.67970580263420     -1.20461112336857      0.27349715521733
  H   3.23662545687714     -2.10689757594570      0.49892867481257
  C   -2.82177361917925     -1.13043103390681     -0.10386532530642
  H   -3.51014743495349     -1.95462164009017     -0.21675823722194
  C   -3.04889941053762      0.17983385232590      0.14043135568559
  H   -3.99320817886112      0.65976561999209      0.33543491749960
  C   -1.76827856818317      0.87172947439440      0.12713673594966
  C   1.29007509076482     -1.25753466493935      0.22370281229613
  H   0.77313244321886     -2.18370848384900      0.44185110968362
  C   1.22613934424489      1.11460866075272     -0.28938516560192
  H   0.65164782613721      2.00529434845835     -0.49942813519265
  N   -0.83755245756908     -0.14903251663528     -0.14959976983291
  N   -1.46743713308684     -1.38498799383915     -0.18483945594866
  H   -1.14439212941796     -1.97399996906606     -0.94927905846283
  O   -1.48703150501913      2.04665497557114      0.32562800220124
