20
Coordinates from ORCA-job mp2_opt
  C   0.54588187806514     -0.10411477009328      0.22653314411527
  C   2.52759842204696     -1.16388167021466     -0.63154331558008
  C   3.29508125405587     -0.09023673575488     -0.18271602080564
  H   3.00049775736572     -1.99301695392447     -1.14538846438039
  H   4.36786243645123     -0.08793585199143     -0.33559421808882
  C   2.67797215290166      0.98106869548670      0.46028466361433
  H   3.26937902140526      1.82164507883163      0.80413439070411
  C   -2.84038755438771     -1.02846873523482      0.17166652785217
  H   -3.57638319491860     -1.80348797141117      0.32809781687221
  C   -2.97562225435715      0.21436361299482     -0.34622553512060
  H   -3.85533840766921      0.65055172451152     -0.78918375152158
  C   -1.68157418570548      0.87376696898878     -0.26592387263377
  C   1.30266417743420      0.97839524206658      0.67297703632116
  H   0.80723359307715      1.80225719417903      1.17069592609651
  C   1.14834229372300     -1.16871730144765     -0.44637747163157
  H   0.53777786230973     -1.98559795883175     -0.81193223975384
  N   -0.85691439839915     -0.06075726170106      0.41294463273286
  N   -1.53154293198699     -1.27770173945353      0.52253079070928
  H   -1.36055645680728     -1.74319681977088      1.41020868408512
  O   -1.29443046460434      1.95848525277055     -0.66951472358673
