20
Coordinates from ORCA-job mp2_opt
  C   0.56557997540204     -0.09474157671326     -0.03811311582526
  C   2.71009750438999     -1.20913811357002     -0.07548490321019
  C   3.36008484991978      0.01703026795466      0.03126137174809
  H   3.28212827745090     -2.12784205691568     -0.13783320772808
  H   4.44226707554650      0.06234228003654      0.05460009425306
  C   2.60237080946490      1.18407985031670      0.09554943189738
  H   3.09446726804284      2.14669021181077      0.17473241484656
  C   -2.81347871384469     -1.15628353175385      0.07628686047385
  H   -3.48485372809080     -1.99685198733025      0.16875971186908
  C   -3.06494654048507      0.16803599078096     -0.00846328147025
  H   -4.02340632188001      0.65783574178412     -0.04536004600701
  C   -1.79020828801342      0.87023515180765     -0.05374472463660
  C   1.21205284972572      1.14366785763243      0.06841617277415
  H   0.62260860959767      2.04723608328005      0.12151823829600
  C   1.32038022805387     -1.27311278088029     -0.10599898973888
  H   0.83984453491256     -2.23382187323227     -0.24065548547920
  N   -0.83525089007226     -0.16286936948971     -0.02296315858448
  N   -1.45630927768053     -1.40354401197391     -0.01511870808759
  H   -1.05954004875853     -2.04127205224372      0.67174400258815
  O   -1.54377017368147      2.06765391869909     -0.13722167797879
