20
Coordinates from ORCA-job mp2_opt
  C   0.55782885361546     -0.19845218804924      0.09892535456730
  C   2.45051587291651      0.67808563731220     -1.09591970187986
  C   3.30495901338695      0.08379249907859     -0.16698551864635
  H   2.85852908932846      1.25512438672783     -1.91757195013773
  H   4.37800772520737      0.19598484313841     -0.27004874812434
  C   2.78150400183130     -0.64716405865352      0.89741038182980
  H   3.44526059319977     -1.10256685365539      1.62305813154864
  C   -2.81599230304787     -0.89016943558068     -0.63689894584005
  H   -3.52822982122546     -1.54145982154369     -1.12213016528972
  C   -2.99750237841781      0.30147544706847     -0.02128183485296
  H   -3.90404039182536      0.88017577154960      0.03955623566627
  C   -1.70790998426769      0.73276262093623      0.50106531488651
  C   1.40250652491814     -0.78676619991325      1.03551249438812
  H   0.97093065043351     -1.33485386186781      1.86537716707178
  C   1.07285804046470      0.53787747848917     -0.96665616224527
  H   0.39151531069178      0.99824197635765     -1.67324812377293
  N   -0.84980167425159     -0.35421307355712      0.24073056951829
  N   -1.48713950324215     -1.25804637977507     -0.61895070653709
  H   -1.27034577808238     -2.22824284966063     -0.40501169700894
  O   -1.35029584163364      1.77620106159826      1.02789490485855
