20
Coordinates from ORCA-job mp2_opt
  C   0.55758462424540     -0.09566485246962     -0.11051009301062
  C   2.63191083542725      1.10542142229810     -0.30368618295424
  C   3.33518944265269     -0.02957697069191      0.09640230192080
  H   3.16534391964842      2.01934435057766     -0.53820052587508
  H   4.41537084022616     -0.00262643815019      0.17681340748102
  C   2.63938117379418     -1.19838925394115      0.39607786548546
  H   3.17515899332361     -2.08487842657769      0.71576628201965
  C   -2.82576310726176     -1.10388198316041     -0.12638064472349
  H   -3.52746466639149     -1.91451515257692     -0.25548179245156
  C   -3.02968870006514      0.18939531735647      0.21385174471800
  H   -3.95746190755713      0.65639065530799      0.49907433384871
  C   -1.74573809293590      0.87308131599887      0.17613372503214
  C   1.25135734845741     -1.23716498946992      0.30184705700163
  H   0.70584916079200     -2.13460399575348      0.56618045750456
  C   1.24604339490589      1.08035219597617     -0.42193822645847
  H   0.69236144074260      1.95531671723935     -0.73311587573270
  N   -0.84242589489107     -0.12514554044583     -0.25168826217046
  N   -1.48199919784621     -1.35788028425231     -0.30496972773535
  H   -1.20856089521466     -1.91117404036976     -1.11383549039870
  O   -1.43324471205226      2.02299095310459      0.45095364649874
