20
Coordinates from ORCA-job mp2_opt
  C   0.55758192963156     -0.09570075010709      0.11053340495153
  C   2.63192484368432      1.10535965107261      0.30370172085347
  C   3.33517837087261     -0.02963391092279     -0.09644113757412
  H   3.16536879128194      2.01927130848175      0.53823514634515
  H   4.41535847771854     -0.00270703585210     -0.17688020963537
  C   2.63935067400806     -1.19842963748315     -0.39614079268873
  H   3.17512996473578     -2.08490251773069     -0.71587165394116
  C   -2.82578077354663     -1.10387675090725      0.12642690302300
  H   -3.52750024238000     -1.91449731725515      0.25551011130906
  C   -3.02969419154387      0.18941333673415     -0.21375467884794
  H   -3.95744895462920      0.65646036933371     -0.49895292605486
  C   -1.74573071662398      0.87308130606473     -0.17603268134583
  C   1.25132952862828     -1.23719599125196     -0.30188098253521
  H   0.70579582490053     -2.13461499888520     -0.56622896512223
  C   1.24605943384413      1.08030002004625      0.42198292236712
  H   0.69239625183823      1.95526075395358      0.73320411692180
  N   -0.84242698529901     -0.12516913609341      0.25174249756999
  N   -1.48201546702015     -1.35790226870719      0.30499094615391
  H   -1.20858534051224     -1.91120291295360      1.11385584507974
  O   -1.43323241958889      2.02299648246280     -0.45082358682933
