20
Coordinates from ORCA-job mp2_opt
  C   0.55977489674413     -0.09711414014317      0.09396774695428
  C   2.62497919108865      1.12164068911682      0.27694890692048
  C   3.34070671837091     -0.01960214517835     -0.08061605154796
  H   3.14944526217617      2.04579033813300      0.49081345092839
  H   4.42160693177486      0.01196922132348     -0.14835907743438
  C   2.65544088540414     -1.20073160831513     -0.35487589044666
  H   3.19986308131449     -2.09281360259201     -0.64277733998833
  C   -2.82514746745538     -1.11302560865333      0.12020053087794
  H   -3.52256298671488     -1.92782385128281      0.24570396193992
  C   -3.03704254195386      0.18666255758837     -0.18848608814679
  H   -3.97108031018182      0.65920687428655     -0.44233720173177
  C   -1.75358771220806      0.87221130414153     -0.16159494095719
  C   1.26666885321139     -1.24535888015871     -0.27681633224619
  H   0.73165811937564     -2.15328589690449     -0.52630678044683
  C   1.23777235620541      1.09265781705788      0.37733694284069
  H   0.67567078870162      1.97341953910225      0.65427840471682
  N   -0.84049269489395     -0.13531069189641      0.21528770103434
  N   -1.47703302686968     -1.36866950330072      0.26417320658830
  H   -1.18575809354973     -1.93405115637334      1.05845881439901
  O   -1.45149325054003      2.03077074404859     -0.41297896425409
