20
Coordinates from ORCA-job mp2_opt
  C   0.54944721988876     -0.10308029014042      0.19166330008340
  C   2.57120083798678     -1.18693361578925     -0.53729064104418
  C   3.30935880406087     -0.06816987583932     -0.15614832967212
  H   3.06975063655419     -2.04463125661294     -0.97433066039903
  H   4.38513959403154     -0.05646283676373     -0.28545877104152
  C   2.65708263946868      1.03653524990856      0.38849989727952
  H   3.22468862935818      1.91250169545991      0.68028329282964
  C   -2.83546665883154     -1.05677999578706      0.14012068893827
  H   -3.55956670232909     -1.84634645147748      0.27743148129567
  C   -2.99462737244947      0.20958434611446     -0.30918118072118
  H   -3.89051450244286      0.66065106316581     -0.70190773451151
  C   -1.70547938190113      0.87851064010360     -0.22873683272288
  C   1.27781821776375      1.02508526566565      0.57197359600192
  H   0.75900429035545      1.87553038279002      0.99413858677510
  C   1.18827123537083     -1.20499911070413     -0.38185729068812
  H   0.60336514038049     -2.05916214286431     -0.70044635386868
  N   -0.85257669047127     -0.08726330349652      0.36224341738027
  N   -1.51469994855113     -1.31077455981595      0.43960366757304
  H   -1.31196316931074     -1.81524015192312      1.29905110682819
  O   -1.34605481893231      1.99302294800621     -0.57527724031581
