19
Coordinates from ORCA-job mp2_opt
  C   -0.83513609843145     -0.03503233275816     -0.05188415440947
  C   -2.88308432269191      1.19946311275842     -0.36963138520630
  C   -3.60727982637599      0.12293725189189      0.14035802260368
  H   -3.39854472127607      2.09428478615784     -0.69853351394222
  H   -4.68668889302679      0.18449940764762      0.21625109361502
  C   -2.94565827953890     -1.03444888107002      0.54655729450909
  H   -3.50967382333464     -1.87403271206812      0.93586029990963
  C   2.78335717614754      0.21472737631632      0.22593662813180
  C   0.62198689961967     -0.13283104319406     -0.17935069761559
  C   -1.55983823378412     -1.11908421464990      0.44848206075166
  H   -1.03288615991462     -2.01690565544464      0.75084093060753
  C   -1.49749745982907      1.12239364182195     -0.47129349421125
  H   -0.92814384997616      1.94879087824111     -0.88344337875502
  N   1.22564025844951     -0.95302478065436     -0.98361627133827
  N   1.50421602220086      0.58974682451301      0.57419204508354
  H   1.28849313516720      1.26093942112745      1.29324473301765
  N   3.86470590504404      0.66699507440973      0.70845541004403
  H   4.66406314253169      0.20989931801210      0.27578634172490
  O   2.61133212901920     -0.74474147305820     -0.74282696452041
