19
Coordinates from ORCA-job mp2_opt
  C   -0.83818075810786      0.02588483080824      0.10613767507599
  C   -2.91717724128527      1.12846575910405     -0.42116370070038
  C   -3.60333686750732     -0.06448441125184     -0.20063161514212
  H   -3.45914684565335      2.02247601155685     -0.70690597768060
  H   -4.68048926430397     -0.09856167585746     -0.31606721333965
  C   -2.90691411531562     -1.21246666554062      0.17365427183536
  H   -3.44128756791033     -2.13836286098924      0.35178693989153
  C   2.77342831873681     -0.11243176821462     -0.31264983776785
  C   0.62362470660187      0.06926864851044      0.23657154908093
  C   -1.52378005141278     -1.17201701848984      0.32419062941111
  H   -0.97412403364442     -2.05784500172232      0.62344828518827
  C   -1.53406601749525      1.17668742435909     -0.27170486814906
  H   -0.99029986571964      2.10097779106765     -0.43246756038355
  N   1.25106672981278      0.48191889812962      1.29423054405089
  N   1.48377495839019     -0.29788168411191     -0.76020307682055
  H   1.24655345468625     -0.64074524746228     -1.67681238761255
  N   3.84079924805362     -0.34446086452467     -0.95579541583278
  H   4.65304838884301     -0.11581067135617     -0.38736929827289
  O   2.63041782323129      0.37361050598503      0.96408005716791
