19
Coordinates from ORCA-job mp2_opt
  C   -0.83750922181544      0.05923112050497     -0.10115111627292
  C   -2.94102692771110      1.02062188964327      0.57907447965286
  C   -3.60126951518652     -0.13521184374740      0.16626607011137
  H   -3.50291982431523      1.84469122678975      1.00304746913680
  H   -4.67802141722530     -0.20849694630437      0.26559416802021
  C   -2.87874630055385     -1.19665168272513     -0.37649377310482
  H   -3.39240768643024     -2.09367718379230     -0.70211424663204
  C   2.77143389274667     -0.23237769494934      0.23819173134453
  C   0.62240489274025      0.14663439269687     -0.20149835094352
  C   -1.49633327234929     -1.10538677087875     -0.50593835713363
  H   -0.92780079280746     -1.92261399482301     -0.93708145987343
  C   -1.55841168154430      1.11960672226243      0.45273020708828
  H   -1.03198820628575      2.01344844548893      0.76764623641283
  N   1.25016398123508      0.97641262898364     -0.97662445963254
  N   1.48181904990736     -0.60323921480428      0.55171571069509
  H   1.24452228040991     -1.28267911142531      1.25606602687534
  N   3.83851134467768     -0.70385198753369      0.73397948576013
  H   4.65038439239331     -0.24465138979576      0.32759543064296
  O   2.62855801211421      0.74768139440948     -0.71414425214750
