19
Coordinates from ORCA-job mp2_opt
  C   -0.83445939983703     -0.04061624589810      0.04762222882404
  C   -2.87126513538895      1.21075053973934      0.37226709220798
  C   -3.60653036456358      0.13726257073624     -0.12825167553376
  H   -3.37812355109332      2.11070423636713      0.70058763434145
  H   -4.68586294359061      0.20670040158920     -0.19840868904841
  C   -2.95579640243982     -1.02687089369164     -0.53294122265568
  H   -3.52852218031230     -1.86319178860470     -0.91655536735948
  C   2.78325067138984      0.23231376648185     -0.20496271337234
  C   0.62184444287965     -0.14663271063045      0.16864843134447
  C   -1.57013362616774     -1.12181512314841     -0.44288399251844
  H   -1.05107753374498     -2.02388379115349     -0.74605103755747
  C   -1.48576351080806      1.12405956784116      0.46514417255645
  H   -0.90803679114045      1.94771879157954      0.87123926382536
  N   1.22497890584024     -1.02453382207723      0.90989709042082
  N   1.50436195606089      0.63595104310307     -0.52183837898468
  H   1.28933451063164      1.34727725637044     -1.20142918066938
  N   3.86515684984925      0.71478819840052     -0.65587553446790
  H   4.66318413331484      0.22306426585857     -0.26018129430889
  O   2.61078796912048     -0.79453626286302      0.69125317295586
