19
Coordinates from ORCA-job mp2_opt
  C   -0.83250168314503     -0.05718774407447     -0.02267017661961
  C   -2.80480274958367      1.33378911948865     -0.12371543173510
  C   -3.60929928317485      0.20835414578566      0.03347509158664
  H   -3.25502767894464      2.31390610745491     -0.22910801171506
  H   -4.68801173597396      0.31030516626980      0.05528693367235
  C   -3.02199656059721     -1.05081520084951      0.16226138518379
  H   -3.64521070289117     -1.92862839975274      0.28790949864603
  C   2.78673286444162      0.28441020569972      0.04373650358149
  C   0.61835101400173     -0.21065685924180     -0.04592367275214
  C   -1.64010550822101     -1.18848250811298      0.14093997877772
  H   -1.17280240312681     -2.15969608754324      0.25252801941951
  C   -1.41882153496478      1.20531145762745     -0.15121859205550
  H   -0.80432264666597      2.08543349440770     -0.30552502186136
  N   1.21609594732738     -1.34583858278824     -0.25805623672159
  N   1.51499270778792      0.81240587595637      0.10406755896928
  H   1.33002334100132      1.74905986719925      0.42262407999829
  N   3.87629063535178      0.91448891689922      0.18848340542218
  H   4.66751393778512      0.28107786923982      0.10068792640172
  O   2.59868203959222     -1.05353684366557     -0.20783223819864
