19
Coordinates from ORCA-job mp2_opt
  C   -0.83599702204138     -0.02984119272162     -0.05746361594456
  C   -2.89430481668814      1.19398902693304     -0.34924756987238
  C   -3.60835607139904      0.10704891771524      0.15276807591742
  H   -3.41770700557529      2.08895898880224     -0.66492126404339
  H   -4.68780331046642      0.16009076229980      0.23460048044100
  C   -2.93662069000430     -1.04992426304258      0.54312258564968
  H   -3.49271243361765     -1.89801672840469      0.92532949944609
  C   2.78362257761995      0.19144585992407      0.24946935961140
  C   0.62260898639872     -0.11605292698879     -0.19039651347685
  C   -1.55073856620342     -1.12360220849099      0.43632381457392
  H   -1.01708396925394     -2.02204441979541      0.72503157052912
  C   -1.50863778610677      1.12762778558130     -0.45944484339828
  H   -0.94696349059178      1.96274767788990     -0.86423691050103
  N   1.22800529071031     -0.85100752664775     -1.07180550953983
  N   1.50374128057842      0.52692819458940      0.63360281033516
  H   1.28652786697011      1.13252335054579      1.40827312730051
  N   3.86460275276037      0.59696614232861      0.77271688369036
  H   4.66428548445274      0.18727840357162      0.29551229547118
  O   2.61329992245751     -0.66849384408919     -0.80867127618955
