19
Coordinates from ORCA-job mp2_opt
  C   -0.83367145463531      0.06220641445854      0.05862972025628
  C   -2.99480459715004      1.03127519074880     -0.38761609289736
  C   -3.60338574297193     -0.18913158205754     -0.09639894570646
  H   -3.59946662378225      1.88215231182172     -0.67904298242918
  H   -4.68114908961685     -0.28599593714968     -0.15628495734637
  C   -2.82485294851625     -1.28482307306823      0.27164457747682
  H   -3.29598421235339     -2.23266759756621      0.50437449629009
  C   2.77802672384683     -0.27793838063358     -0.12967895701667
  C   0.61872742489319      0.19544705704241      0.12509334104726
  C   -1.44076021390590     -1.16411150223261      0.34770997107771
  H   -0.83521717809335     -2.00899982945977      0.65869083960213
  C   -1.61203029320326      1.16061909899795     -0.31791109713317
  H   -1.12383116689589      2.09974556196427     -0.55062443377551
  N   1.22798770157963      1.25052100597108      0.57577535316867
  N   1.49900404072317     -0.76543813354319     -0.29010099436263
  H   1.28572959876711     -1.60813322673648     -0.79841207966929
  N   3.85700492524188     -0.86703465088724     -0.43697195789961
  H   4.65713654972059     -0.27675262462892     -0.22164703089020
  O   2.60991555635201      0.96663889695869      0.42787123020747
