19
Coordinates from ORCA-job mp2_opt
  C   -0.83267684312681      0.05805868933149     -0.02344997642610
  C   -3.01491909350348      1.04361295492482      0.25607437516216
  C   -3.60723735179876     -0.20306341725952      0.05351889118484
  H   -3.63385832685019      1.91228827745287      0.44836730898469
  H   -4.68584204730335     -0.30383232411142      0.08501877977342
  C   -2.80940335527989     -1.31855711520026     -0.18978576160443
  H   -3.26554770089225     -2.28763520736942     -0.35513309500873
  C   2.78380287456533     -0.28270427349098      0.07692561352257
  C   0.61793541950883      0.20693865234307     -0.07070101470790
  C   -1.42387686333307     -1.19209945960108     -0.23023395415078
  H   -0.80942194635186     -2.05774757002370     -0.45322974735770
  C   -1.63238285373223      1.17899442407026      0.22327357517370
  H   -1.15901749784777      2.13930111119868      0.39045919348080
  N   1.21760115213512      1.31610690601036     -0.38635897970511
  N   1.51021000172732     -0.79888239216122      0.18376212659507
  H   1.31625356916463     -1.69787830772100      0.59341294772785
  N   3.87070408570813     -0.89928491196972      0.28577448722969
  H   4.66418065874270     -0.27899038231715      0.14223135609425
  O   2.60079911846761      1.02577834589391     -0.30209912596827
