19
Coordinates from ORCA-job mp2_opt
  C   -0.83240819725097      0.05528310166387     -0.00074727884146
  C   -3.02453149471869      1.05432107708368     -0.11465009649929
  C   -3.61071136871396     -0.20842477039375     -0.01826136448257
  H   -3.64902184374347      1.93614568818772     -0.19913777060355
  H   -4.68964496460834     -0.30974101156024     -0.02726330696569
  C   -2.80423659604503     -1.33774011773239      0.09180085687422
  H   -3.25271350744175     -2.32081529609733      0.17428791861578
  C   2.78822769571937     -0.28509196657456     -0.02334203864939
  C   0.61840127711501      0.21051674489517      0.02369255098262
  C   -1.41792614422483     -1.20966845730967      0.10354378764957
  H   -0.80391753941857     -2.09584112046130      0.21943977781557
  C   -1.64268850554357      1.19159455913621     -0.10804058340245
  H   -1.17748751163909      2.16667678626055     -0.19064825391916
  N   1.21397718325916      1.35509575214844      0.18687594085566
  N   1.51767562783472     -0.81684150812985     -0.07065899119424
  H   1.33873785156075     -1.77070616460336     -0.33657537221437
  N   3.87946006008499     -0.92014704373223     -0.12826892532188
  H   4.66952369215681     -0.28267780701954     -0.06187487589763
  O   2.59665328561747      1.06273655423857      0.16381502519827
