19
Coordinates from ORCA-job mp2_opt
  C   -0.83283829349948      0.06022463623665     -0.03632873870861
  C   -3.00922195532193      1.03954537046620      0.30157676105026
  C   -3.60553975551957     -0.19972818864152      0.06873246715257
  H   -3.62451884456127      1.90235520954089      0.52868469678110
  H   -4.68382270868814     -0.30009978702310      0.11070018843372
  C   -2.81287064688626     -1.30885201260189     -0.21812764255865
  H   -3.27297406092405     -2.27181853432033     -0.40660691962987
  C   2.78151714467439     -0.28190321642602      0.09460082944959
  C   0.61808885630870      0.20460513305670     -0.09051726673451
  C   -1.42790133232058     -1.18320225999128     -0.27149654391498
  H   -0.81508748605086     -2.04147644745361     -0.52588177035730
  C   -1.62661857669772      1.17401273515545      0.25566304811287
  H   -1.14916915790376      2.12803619387519      0.44587991304977
  N   1.22106281341840      1.29791180351783     -0.45086246925244
  N   1.50607645394302     -0.78988664830470      0.21703227763542
  H   1.30520032683306     -1.66959560276626      0.66375958243453
  N   3.86550248273356     -0.89074492607125      0.33856734604614
  H   4.66127159104353     -0.27890070277977      0.17293375303319
  O   2.60392614941898      1.00825424453083     -0.34454151202282
