19
Coordinates from ORCA-job mp2_opt
  C   -0.83750553225630      0.05926656132764      0.10112438744192
  C   -2.94099659233637      1.02067893655344     -0.57915310452605
  C   -3.60127314227604     -0.13511411702317     -0.16628471752790
  H   -3.50286611287120      1.84473643651551     -1.00317960433849
  H   -4.67802843860948     -0.20836999690363     -0.26559659447242
  C   -2.87877982752223     -1.19653671832713      0.37655233761371
  H   -3.39246769607469     -2.09353110566951      0.70221581254103
  C   2.77142925713426     -0.23249962230877     -0.23818218430120
  C   0.62241114742076      0.14662282007187      0.20147040468571
  C   -1.49635879395051     -1.10532015037909      0.50595549624170
  H   -0.92785185316114     -1.92252553663507      0.93717412530292
  C   -1.55837724520993      1.11963054428724     -0.45282113949295
  H   -1.03193536695426      2.01343966995308     -0.76779770007022
  N   1.25019974142515      0.97639467772206      0.97658008389523
  N   1.48180282017545     -0.60332133464217     -0.55170113373461
  H   1.24448348968024     -1.28274842612270     -1.25605622843637
  N   3.83849287877709     -0.70403018827706     -0.73394650328392
  H   4.65037946718922     -0.24484799429657     -0.32756834909527
  O   2.62858379942000      0.74759354415405      0.71412561155717
