19
Coordinates from ORCA-job mp2_opt
  C   -0.83345360556132     -0.04101249236062     -0.03552297305134
  C   -2.85323278442167      1.24246934747669     -0.34404781600182
  C   -3.60716692277487      0.15828125442997      0.10261631531124
  H   -3.34611414159794      2.15981046208485     -0.64450194148495
  H   -4.68670325318154      0.23640557846443      0.15970608240633
  C   -2.97361979169613     -1.02726360019777      0.47158591511793
  H   -3.56024683019978     -1.87158337281282      0.81458438318712
  C   2.78461285063076      0.25001364763278      0.17153707509745
  C   0.62041382349338     -0.16421291021192     -0.14320542272883
  C   -1.58802873178465     -1.13282321742560      0.40115556349746
  H   -1.08113404578832     -2.04911663928981      0.68080391067010
  C   -1.46734681288030      1.14504344430134     -0.41965587191731
  H   -0.87757763692429      1.97773438687087     -0.78864506633483
  N   1.21836587458921     -1.14045551822768     -0.75546532257242
  N   1.50887385749117      0.70338254252194      0.42825554048932
  H   1.30033746604597      1.49134508617869      1.01958839158920
  N   3.87036842376095      0.78472445932300      0.54770428072812
  H   4.66462280692275      0.23638492195986      0.22600404847788
  O   2.60479745387664     -0.89358438071820     -0.56856809248063
