19
Coordinates from ORCA-job mp2_opt
  C   -0.83239676852893      0.05531816114585      0.00071985504845
  C   -3.02453191124594      1.05433645155682      0.11460264660339
  C   -3.61069380341239     -0.20842173579877      0.01822692229171
  H   -3.64903255032534      1.93615640526140      0.19906386968778
  H   -4.68962687823582     -0.30974826715449      0.02723618918301
  C   -2.80420249126928     -1.33773894636158     -0.09179873747192
  H   -3.25266021867277     -2.32082479893842     -0.17426499378102
  C   2.78823348814579     -0.28508498412695      0.02337205932509
  C   0.61841384492157      0.21055213418470     -0.02369729976545
  C   -1.41789662302937     -1.20964047274985     -0.10354812552625
  H   -0.80387511207541     -2.09580877036909     -0.21941299615584
  C   -1.64269020204820      1.19162266471719      0.10797661842653
  H   -1.17749381805861      2.16670751176297      0.19058775908134
  N   1.21400443749404      1.35512432232696     -0.18686929493068
  N   1.51767559303267     -0.81681432238340      0.07068711193576
  H   1.33871158278531     -1.77068085279188      0.33657709590076
  N   3.87945750240048     -0.92015594691960      0.12829734800252
  H   4.66952741928507     -0.28269357029402      0.06191685668621
  O   2.59667850883716      1.06274901693214     -0.16377888454140
