19
Coordinates from ORCA-job mp2_opt
  C   -0.83239328938448      0.05566356024237      0.00079022608592
  C   -3.02591002127499      1.05683525925929      0.06301164495666
  C   -3.61141882785610     -0.20893596884907      0.01081118655819
  H   -3.65098390192325      1.94111328789231      0.10894300705443
  H   -4.69034662199755     -0.31047151424820      0.01650055234132
  C   -2.80378407866862     -1.34082571939924     -0.05104208214537
  H   -3.25089298371158     -2.32688837206522     -0.09713257023243
  C   2.78906300525216     -0.28477000032589      0.00767026473212
  C   0.61863787897106      0.21173271238354     -0.01377912008659
  C   -1.41743750040249     -1.21230372629856     -0.05830751397945
  H   -0.80490978193487     -2.10413687366898     -0.12858470877649
  C   -1.64429226921258      1.19456930871121      0.05915374504319
  H   -1.18039364245048      2.17269034023279      0.10483154158249
  N   1.21462083951780      1.36403430449950     -0.10856458106369
  N   1.51898259929286     -0.81767843139507      0.02885069795142
  H   1.34215089645823     -1.79130592137657      0.20968450787861
  N   3.88005219586448     -0.92558288117892      0.07236039496391
  H   4.67078556801438     -0.28639891931994      0.03862761676186
  O   2.59695093544603      1.07167455490466     -0.10103080962608
