19
Coordinates from ORCA-job mp2_opt
  C   -0.83244843284538     -0.05786050529588     -0.02360951055219
  C   -2.80840264937360      1.32005678624187     -0.18899467645747
  C   -3.60716218802827      0.20402982222471      0.04864979202182
  H   -3.26381155518000      2.28990933638040     -0.35179843817340
  H   -4.68578752663752      0.30509746326610      0.07845378762264
  C   -3.01566516219113     -1.04360555828533      0.24777405340711
  H   -3.63529094479798     -1.91279614847277      0.43548862727518
  C   2.78430041310593      0.28141389901325      0.07529456703107
  C   0.61810154135528     -0.20757573105117     -0.07002070932619
  C   -1.63315479849382     -1.17943092588995      0.21708260084538
  H   -1.16054107769052     -2.14057294046228      0.38155026693710
  C   -1.42283905765162      1.19316450018049     -0.22735427963909
  H   -0.80785989089745      2.05948934868091     -0.44617983561302
  N   1.21719219501438     -1.31791664880005     -0.38272704337794
  N   1.51101364362441      0.79856039366659      0.18103386827714
  H   1.31785071282858      1.69886612584113      0.58814989492337
  N   3.87160298458399      0.89802907881545      0.28192825663441
  H   4.66470831319502      0.27692723547552      0.13984502750509
  O   2.60049248007971     -1.02807553152899     -0.29984724934099
