19
Coordinates from ORCA-job mp2_opt
  C   -0.83687013609275      0.06225711920580      0.09787873733387
  C   -2.94969790211598      1.01664555882070     -0.56259775398915
  C   -3.60099287186401     -0.14684041051119     -0.15694877502992
  H   -3.51875952234955      1.84037198617730     -0.97766022065509
  H   -4.67771747462422     -0.22613262628640     -0.25219475511465
  C   -2.86913104397541     -1.20862351918672      0.37253086752365
  H   -3.37565703863047     -2.11163678893673      0.69284857102817
  C   2.77175168825147     -0.24773249013871     -0.21890771128210
  C   0.62206869648885      0.15758263487824      0.19231401459851
  C   -1.48669681759143     -1.11012240071936      0.49557255296978
  H   -0.91163784177986     -1.92752368447768      0.91783267645364
  C   -1.56715217004776      1.12324006556404     -0.44268374453600
  H   -1.04705583829359      2.02191204541755     -0.75414368536612
  N   1.24832311410022      1.04524281493965      0.90203805351355
  N   1.48315757554084     -0.64756943129941     -0.49941906281487
  H   1.24748857299126     -1.36912558584456     -1.16115793748868
  N   3.83992354002907     -0.74864360665705     -0.68221899579254
  H   4.65011233676383     -0.25526386116320     -0.31433294759904
  O   2.62691413319948      0.79958318021775      0.65840511624700
