19
Coordinates from ORCA-job mp2_opt
  C   -0.83675350722403     -0.02826205460007     -0.07058988071649
  C   -2.90256062185005      1.19802564063093     -0.28867080322126
  C   -3.60742367822672      0.08683957900214      0.17142049018084
  H   -3.43240995099031      2.10377564101567     -0.55956630014852
  H   -4.68637704414363      0.13102557584692      0.26416090051808
  C   -2.92727066813229     -1.08263668923070      0.50611420986196
  H   -3.47634131678396     -1.94897070716489      0.85618018037446
  C   2.78128587505457      0.15891790312621      0.27611648748032
  C   0.62328324577603     -0.09500164262553     -0.20881278031478
  C   -1.54202639309992     -1.14494290094989      0.38405284592744
  H   -1.00285044530787     -2.05294326605338      0.62980651907076
  C   -1.51740365108197      1.14349159284157     -0.41229944754742
  H   -0.96177134556889      1.99826259918604     -0.78267748618744
  N   1.23457879148201     -0.68480878407887     -1.18930757874983
  N   1.49863201028751      0.42902715444469      0.70074513382891
  H   1.27589467585578      0.91376449083858      1.55479447772807
  N   3.85801210348160      0.48222173820646      0.86167131339629
  H   4.66167102373760      0.15272689583732      0.33194887841259
  O   2.61865389673455     -0.52895176627320     -0.90177515989397
