19
Coordinates from ORCA-job mp2_opt
  C   -0.83249387500267     -0.05764260030599     -0.02287250551215
  C   -2.80618643548545      1.32774090732124     -0.15717286274009
  C   -3.60827549863829      0.20667071236095      0.04068392176061
  H   -3.25867687111362      2.30321751512773     -0.29202858384483
  H   -4.68694504605126      0.30838514056586      0.06617555857403
  C   -3.01928077423569     -1.04727883846868      0.20565300406212
  H   -3.64103456111843     -1.92099911038970      0.36297104440672
  C   2.78554141517894      0.28317721915541      0.05961448597343
  C   0.61819312944992     -0.20954498728123     -0.05730869642774
  C   -1.63710246171395     -1.18429244584433      0.18022609234075
  H   -1.16746376472785     -2.15082129461208      0.31951691094121
  C   -1.42038912339454      1.19981811106565     -0.18974991216312
  H   -0.80533442481551      2.07319101971967     -0.37749699621479
  N   1.21659552773721     -1.33326094624766     -0.32086827937507
  N   1.51305246301671      0.80632553910239      0.14313116715972
  H   1.32408486594915      1.72505141131692      0.50862318245027
  N   3.87409248515113      0.90706296527479      0.23544872460702
  H   4.66614756443303      0.27915321622608      0.11999295579839
  O   2.59950238538117     -1.04188053408702     -0.25453021179646
