19
Coordinates from ORCA-job mp2_opt
  C   -0.83283004593866     -0.04928982985176     -0.02621434073585
  C   -2.83238178692385      1.27364931664928     -0.30044476173738
  C   -3.60629462843667      0.17879586418419      0.08031430474216
  H   -3.30900110382400      2.21143914118904     -0.56155520792389
  H   -4.68555653820605      0.26787014888417      0.12547692779603
  C   -2.99203817061242     -1.03141424467387      0.39992607182780
  H   -3.59387064709661     -1.88354730802200      0.69387542049093
  C   2.78375620689342      0.26490520611258      0.13841776885783
  C   0.61920610223991     -0.18465980747952     -0.11574619293504
  C   -1.60734786420976     -1.15107126284560      0.34720740050298
  H   -1.11499698844558     -2.08444254862536      0.59426600039292
  C   -1.44669657362050      1.16244723632862     -0.35972033031916
  H   -0.84341794444727      2.00468028725538     -0.68248102029748
  N   1.21655283742191     -1.22039972054033     -0.62241436682300
  N   1.50893657131013      0.74478847280178      0.34603268661514
  H   1.30429685870572      1.57980747666541      0.87024089490940
  N   3.86992089439844      0.83761435288299      0.45175761118508
  H   4.66379963425529      0.25695776808205      0.19164134672284
  O   2.60271218653656     -0.95245854899705     -0.47224621327131
