19
Coordinates from ORCA-job mp2_opt
  C   -0.83255884979847      0.05634782104794     -0.01203017300522
  C   -3.01932755764535      1.04744465841657      0.20982466014153
  C   -3.60871459498996     -0.20560412210243      0.03945088803749
  H   -3.64095885642578      1.92133401780816      0.36666214543546
  H   -4.68753424796036     -0.30657014091681      0.06137755597207
  C   -2.80691116983416     -1.32665427791072     -0.15980848142242
  H   -3.25982850134536     -2.30112116592943     -0.30042961093101
  C   2.78575602887526     -0.28356765365737      0.05893586160104
  C   0.61794819134881      0.20849718136899     -0.05218352806992
  C   -1.42096284496465     -1.19962164215976     -0.18826541020296
  H   -0.80583496820091     -2.07249471352895     -0.37811981480968
  C   -1.63696401202952      1.18353008534638      0.18865165229255
  H   -1.16701951454588      2.14949196425711      0.33082381648276
  N   1.21518553244076      1.33137989560730     -0.32176916636459
  N   1.51364048788877     -0.80648694224336      0.14904957363223
  H   1.32585802052326     -1.72398471871523      0.51825712308181
  N   3.87501996547114     -0.90668869201166      0.23309227933210
  H   4.66656831854984     -0.27912446697550      0.11243325335153
  O   2.59841057264252      1.04030891229876     -0.25941562455477
