19
Coordinates from ORCA-job mp2_opt
  C   -0.83248533808867     -0.05664156390105      0.02208930536470
  C   -2.80411919038739      1.33822917742271      0.08822175262926
  C   -3.61029005652342      0.20914762995538     -0.02634428120382
  H   -3.25263725160724      2.32195996480956      0.16220885277300
  H   -4.68905299583840      0.31104330846608     -0.04461172296260
  C   -3.02403067657407     -1.05403414518890     -0.11635367735402
  H   -3.64822108030518     -1.93535684937680     -0.20800517202795
  C   2.78787314470207      0.28504554899280     -0.02727825452894
  C   0.61856497543086     -0.21119808195894      0.03545600984489
  C   -1.64235459141951     -1.19195971021941     -0.09860863042994
  H   -1.17694042110907     -2.16711887638385     -0.17909103036477
  C   -1.41799674145121      1.20950237185483      0.11083493182216
  H   -0.80448701498020      2.09585963714930      0.22804227110310
  N   1.21569925674037     -1.35593024208858      0.19187723012131
  N   1.51683518597023      0.81652658895362     -0.06389935138752
  H   1.33565257981878      1.77107548139474     -0.32575791897836
  N   3.87814064652279      0.92064409728257     -0.13886752482891
  H   4.66883849911616      0.28323956461696     -0.07982514988187
  O   2.59807506998310     -1.06327990178101      0.15812436029028
