19
Coordinates from ORCA-job mp2_opt
  C   -0.83243474166859     -0.05614910176054     -0.01862167065565
  C   -2.80379255368895      1.34107698069227     -0.04904580040591
  C   -3.61120145682451      0.20930957069823      0.01792139175082
  H   -3.25098140805531      2.32737821307191     -0.08880017197670
  H   -4.69003949633300      0.31106187343331      0.03152579843397
  C   -3.02560438642075     -1.05659499282660      0.06571436903415
  H   -3.65047785397849     -1.94062124623044      0.11870541661242
  C   2.78894451666460      0.28475609272419      0.01098011571296
  C   0.61871363433052     -0.21188457439432     -0.02421962576267
  C   -1.64406724790905     -1.19456170324801      0.05239554351152
  H   -1.18001688307103     -2.17265782973208      0.09705401033039
  C   -1.41754430976362      1.21230973486481     -0.06558060372634
  H   -0.80529332294598      2.10414536015087     -0.13834856471066
  N   1.21537741014647     -1.36410322031719     -0.11571806818979
  N   1.51869296218224      0.81760224482112      0.02411419878187
  H   1.34058096307712      1.79107920761006      0.20452096514535
  N   3.87952725140900      0.92554494779776      0.08256976043342
  H   4.67042492983377      0.28632148497359      0.05385950828761
  O   2.59760299301558     -1.07170704232893     -0.09884857260677
