19
Coordinates from ORCA-job mp2_opt
  C   -0.83807633299564      0.05258184482958      0.10646067077659
  C   -2.93195448623948      1.03450269877275     -0.57596479072213
  C   -3.60209753880320     -0.12031076957983     -0.17657628734597
  H   -3.48604142822240      1.86708750545961     -0.99355948370924
  H   -4.67893286349015     -0.18500058734299     -0.28116656491725
  C   -2.88946257296169     -1.19142467532784      0.36013688550533
  H   -3.41083956006072     -2.08809506283105      0.67434275992008
  C   2.77179429924453     -0.20826788893360     -0.26131888687778
  C   0.62293501696662      0.13099480029408      0.21260183844857
  C   -1.50699320492214     -1.11067962901846      0.49784148541615
  H   -0.94616879591845     -1.93609434979095      0.92330347525241
  C   -1.54923281824784      1.12224717260878     -0.44234776690831
  H   -1.01607726419898      2.01640330525963     -0.74505831689277
  N   1.25198617548001      0.88814456698824      1.05775732823472
  N   1.48168867267646     -0.54421807367575     -0.60924902619085
  H   1.24347038308233     -1.17084326652134     -1.36068727411829
  N   3.83864266972752     -0.64027716574951     -0.79233751322876
  H   4.65115449646057     -0.22313570338257     -0.34411978722014
  O   2.63006015242266      0.68642727794124      0.77200225457763
