19
Coordinates from ORCA-job mp2_opt
  C   -0.83366799197736      0.06221169717099     -0.05871140645367
  C   -2.99477309039739      1.03135467790491      0.38752619015163
  C   -3.60338510556851     -0.18906070510722      0.09640917327243
  H   -3.59940997394921      1.88226202082306      0.67891642861178
  H   -4.68114901343646     -0.28589849504533      0.15632849235771
  C   -2.82488660130251     -1.28478089641665     -0.27159670154007
  H   -3.29604695948653     -2.23262981360299     -0.50425329860932
  C   2.77803467686930     -0.27799674120739      0.12948728832350
  C   0.61873282199565      0.19541908816883     -0.12522668328630
  C   -1.44078628861308     -1.16411685987939     -0.34768824327200
  H   -0.83526800907379     -2.00903956982058     -0.65862462144367
  C   -1.61199460210766      1.16066759014264      0.31777853599167
  H   -1.12377328776572      2.09980342247078      0.55040645885378
  N   1.22800075013648      1.25044859310007     -0.57600387706481
  N   1.49900628940566     -0.76545464866504      0.29000072379530
  H   1.28575571839060     -1.60812358325337      0.79836517963628
  N   3.85701229902449     -0.86710079799169      0.43676533768545
  H   4.65714861514936     -0.27685201860905      0.22136582685342
  O   2.60992675270671      0.96655203981744     -0.42812980386313
