19
Coordinates from ORCA-job mp2_opt
  C   -0.83252087865274     -0.05310761874892      0.02666162957492
  C   -2.82388499314404      1.28725052474903      0.27677916831530
  C   -3.60562600238975      0.18791463760726     -0.07308366205990
  H   -3.29372949367099      2.23394675051211      0.51668852952812
  H   -4.68449866155761      0.28174475670635     -0.11521095121870
  C   -2.99897857965039     -1.03294862492546     -0.36649814563145
  H   -3.60657816469435     -1.88828921063246     -0.63807427155276
  C   2.78279416410031      0.27152599229998     -0.12074076858749
  C   0.61844660474240     -0.19260009103731      0.10780554402006
  C   -1.61500504722038     -1.15886784819620     -0.31831004167121
  H   -1.12880205943033     -2.09967112301512     -0.54833341669815
  C   -1.43850033122923      1.16994989126208      0.33164886318473
  H   -0.83031110543496      2.01661900332553      0.63239235331365
  N   1.21767270598951     -1.24944993976434      0.56775787000607
  N   1.50789785085256      0.76369027708335     -0.29853120898663
  H   1.30461408256068      1.60694940954940     -0.80997534131851
  N   3.86807510426670      0.85580937630512     -0.41476949928491
  H   4.66290978163174      0.26266667710026     -0.18801741437414
  O   2.60249002293086     -0.97147484018067      0.43659676344100
