19
Coordinates from ORCA-job mp2_opt
  C   -0.83444717106554     -0.04061806408763     -0.04765796034569
  C   -2.87125145398933      1.21075440696965     -0.37228655134837
  C   -3.60652144327699      0.13724416138121      0.12818011836674
  H   -3.37810415277209      2.11071813668027     -0.70058763086624
  H   -4.68585455926435      0.20667927483914      0.19832992281938
  C   -2.95579082387373     -1.02690003376460      0.53284204511974
  H   -3.52852077303599     -1.86323605857491      0.91641652555318
  C   2.78326309738278      0.23227966967155      0.20497395464491
  C   0.62185641798258     -0.14663379464794     -0.16867264700764
  C   -1.57012669058034     -1.12183806643798      0.44279326325828
  H   -1.05107525499092     -2.02391654732469      0.74593910705579
  C   -1.48574921038700      1.12406735822289     -0.46515621882005
  H   -0.90802081199859      1.94774513729458     -0.87121050567362
  N   1.22499109581768     -1.02451519290165     -0.90994459753967
  N   1.50437378384574      0.63592225151941      0.52184649149076
  H   1.28934541177279      1.34720801707035      1.20147924599498
  N   3.86516804927203      0.71472387383469      0.65591572061587
  H   4.66319859502356      0.22300407026165      0.26022378238249
  O   2.61079789413770     -0.79453860000597     -0.69128006570084
