19
Coordinates from ORCA-job mp2_opt
  C   -0.83239071178346     -0.05749437582579     -0.02508463314600
  C   -2.81185285186616      1.31072729800697     -0.21950456080039
  C   -3.60612967021783      0.20020633199906      0.05722773357984
  H   -3.27103713730604      2.27394653257496     -0.40893892463753
  H   -4.68473444105635      0.29996224094888      0.09175701156333
  C   -3.01098213526811     -1.03988295109320      0.28879895182950
  H   -3.62761564025267     -1.90430749657441      0.50593758567414
  C   2.78317383241093      0.27915348179131      0.09050672153249
  C   0.61809054238215     -0.20427778287760     -0.08381152204394
  C   -1.62809351378023     -1.17374821728084      0.25193295467689
  H   -1.15179017902684     -2.12883986880403      0.43959986519115
  C   -1.42650517363239      1.18566613866862     -0.26405189419436
  H   -0.81251038175963      2.04492908522588     -0.51211420929874
  N   1.21776544081787     -1.29910855313820     -0.44514019932754
  N   1.50911306653571      0.78919436536429      0.21834220101953
  H   1.31183926260222      1.67034022030732      0.66382075918390
  N   3.86928817324150      0.88675967298834      0.32802817168037
  H   4.66331629194468      0.27351286450315      0.15931295214980
  O   2.60148422601464     -1.01148198678470     -0.34560996463244
