19
Coordinates from ORCA-job mp2_opt
  C   -0.83625022752507      0.06149428558510      0.09550864068153
  C   -2.95741181245543      1.01773112800853     -0.53504141800195
  C   -3.60122672578543     -0.15608611813819     -0.14733307260947
  H   -3.53254089480094      1.84598814704696     -0.93238669394119
  H   -4.67808044458860     -0.23887301559842     -0.23831791449438
  C   -2.86113606842101     -1.22405570051703      0.35773474629182
  H   -3.36165430883310     -2.13544111789485      0.66356717201876
  C   2.77275347044909     -0.25639881036470     -0.20202331602842
  C   0.62153389710361      0.16502720155027      0.18367612691209
  C   -1.47849597831740     -1.12128773869170      0.47506028037633
  H   -0.89829564498337     -1.94375841177363      0.88028251611288
  C   -1.57482698742744      1.12857166411981     -0.42186164792903
  H   -1.05979772006028      2.03402245794495     -0.72163571559994
  N   1.24444664148483      1.10337014931861      0.82881694375154
  N   1.48608777193984     -0.68309849901967     -0.45002277066656
  H   1.25376212486200     -1.44261737299591     -1.06912678712819
  N   3.84285529493063     -0.78231228557853     -0.63178782049410
  H   4.65103025723997     -0.25940025799068     -0.30247902908624
  O   2.62361935518812      0.84976829498907      0.59926375983451
