19
Coordinates from ORCA-job mp2_opt
  C   -0.83254888698976      0.05641027672510      0.01200981198656
  C   -3.01927914729462      1.04758267999064     -0.20985739947308
  C   -3.60870481757016     -0.20545203871073     -0.03951977535606
  H   -3.64087290539124      1.92149896829663     -0.36669237701302
  H   -4.68752657329986     -0.30639287113956     -0.06146372655312
  C   -2.80694032389070     -1.32653414942551      0.15973327670819
  H   -3.25989661626251     -2.30098642895240      0.30032904482515
  C   2.78575108370948     -0.28365431066197     -0.05894100037147
  C   0.61796439488733      0.20850135415064      0.05216978728485
  C   -1.42099899674759     -1.19953819475429      0.18822044332144
  H   -0.80589583751184     -2.07242954494094      0.37806948496188
  C   -1.63691248796885      1.18362050175080     -0.18866677760414
  H   -1.16693746498954      2.14956977610971     -0.33082423503883
  N   1.21524756138193      1.33135703946369      0.32176692191147
  N   1.51361432639283     -0.80651702710939     -0.14907095698058
  H   1.32580917299077     -1.72401078837200     -0.51827784787075
  N   3.87498800131976     -0.90682437395639     -0.23308964470762
  H   4.66656578151734     -0.27930008300303     -0.11241853518588
  O   2.59846073571725      1.04022921453900      0.25941650515501
