21
Coordinates from ORCA-job opt
  C   -4.03294915975275     -0.24878065924959     -0.21730890904857
  C   -2.64257629220955     -0.32424570585367     -0.22004951331510
  C   -1.87042606822225      0.82366262941912     -0.00851343409050
  C   -2.51449637323504      2.04480593033461      0.22123287464261
  C   -3.90468058677656      2.11925574870901      0.22199654299995
  C   -4.66667640020101      0.97276868920529      0.00307237630707
  H   -4.62129151499107     -1.14518148812151     -0.37795504037569
  H   -2.14683424191624     -1.27751147844870     -0.37263415621789
  H   -1.91919916909897      2.93891931617753      0.37665568046582
  H   -4.39302322681553      3.07262927150428      0.38978382602936
  H   -5.74904560626256      1.03106228381083      0.00495360189889
  C   -0.40052310145017      0.74035569217575      0.01148875121622
  C   0.30030540808006      0.18434794701750     -1.06582543304952
  C   0.34933111038731      1.24833469757594      1.07498583011622
  H   -0.24884880029297     -0.19321222101504     -1.92480853209602
  C   1.73517134579401      1.15828121284053      1.02421528164088
  H   -0.15243567921565      1.68723235910815      1.93144127302644
  C   2.32885598384080      0.56949293142870     -0.08962003603225
  H   2.34861626934918      1.53143399935376      1.83580492111018
  H   3.40870004097629      0.48062901507151     -0.15735404544252
  N   1.63302506201268      0.08871682895600     -1.12856285978558
