21
Coordinates from ORCA-job opt
  C   -3.99133731669983      1.88969665151514      0.68079779834155
  C   -2.60342947463743      1.84801343749147      0.78008173436998
  C   -1.87251983402140      0.86191042707578      0.10635392961293
  C   -2.55927748954693     -0.07838599291050     -0.67124468582125
  C   -3.94710757469218     -0.03676755755890     -0.76833582455702
  C   -4.66650549641120      0.94752446417541     -0.09286016894563
  H   -4.54516537059760      2.66288786555947      1.20136833880807
  H   -2.07685978376461      2.59709501078910      1.36225613679007
  H   -2.00208251479526     -0.85966555985434     -1.17806464714719
  H   -4.46767562813400     -0.77653684552840     -1.36612928412001
  H   -5.74729078343139      0.98016268308048     -0.16926510949524
  C   -0.40480952196862      0.82036095840633      0.20606938429057
  C   0.23560111210264      0.97257067147981      1.44280557505810
  C   0.40421643093574      0.61282282177436     -0.91445187718993
  H   -0.35992414680296      1.10419362992278      2.34262861207588
  C   1.78357441883022      0.57953678198486     -0.75202840845000
  H   -0.04467561892805      0.50374267636796     -1.89639316551617
  C   2.31452274280475      0.75544330420945      0.52317585926955
  H   2.44174086661945      0.42993670266654     -1.59986268413750
  H   3.38844949176375      0.74134680672346      0.68149877697729
  N   1.56155649137488      0.94711106262975      1.61459970978597
