21
Coordinates from ORCA-job opt
  C   -3.89698431444352      0.91868429647548     -1.23317285754196
  C   -2.50869936502999      0.85665726824007     -1.15034646697192
  C   -1.87273136162823      0.85041228289379      0.09647183651095
  C   -2.65192808938756      0.89011195994495      1.25841415570192
  C   -4.04026218304484      0.95399327077636      1.17410944771315
  C   -4.66542130294577      0.96832593534207     -0.07136180100046
  H   -4.37951094248478      0.91806099378901     -2.20414282750582
  H   -1.90931179171781      0.79638638959859     -2.05319390850539
  H   -2.16199383308002      0.89194978334340      2.22678509025411
  H   -4.63377163463094      0.99477313581676      2.08055153190802
  H   -5.74638776017400      1.01616310867462     -0.13642353621059
  C   -0.40593953358600      0.75346547826428      0.18347038895720
  C   0.19959526112501     -0.25438584456015      0.94410242263499
  C   0.43218142230048      1.62198946648217     -0.52009346612390
  H   -0.42205850408875     -0.96786365432413      1.47937848538809
  C   1.80826620369123      1.46004270399223     -0.41476217448739
  H   0.00569445161900      2.41845766871950     -1.12149590173045
  C   2.30414501910462      0.43315745663275      0.38450940468232
  H   2.49008533373388      2.12072138831739     -0.93725552473160
  H   3.37420099335672      0.28364133994371      0.49054435158082
  N   1.52183393131131     -0.42174442836285      1.05691034947792
