21
Coordinates from ORCA-job opt
  C   -3.99355413095559      0.46006846249367      1.10339522380985
  C   -2.60174568148800      0.43887892600582      1.12493207532211
  C   -1.86911634156740      0.87273877244672      0.01404652252522
  C   -2.55437178621411      1.34391490809603     -1.11167842534294
  C   -3.94644110433602      1.36284089229750     -1.13257598585448
  C   -4.66862910940405      0.92121136478369     -0.02549016525557
  H   -4.55112588951822      0.12623638853665      1.97131559538385
  H   -2.07378249025366      0.10031630981038      2.01074569849799
  H   -1.98968348709220      1.67504983946901     -1.97727576715603
  H   -4.46724799543736      1.72025960741662     -2.01380501372556
  H   -5.75236016027870      0.93792747492165     -0.04154972796784
  C   -0.39699023436566      0.87913012828517      0.04949536437019
  C   0.31923092505789      2.05033540355353     -0.22677673859718
  C   0.33573259214544     -0.25630760611654      0.40401322719552
  H   -0.21956185269132      2.96139585498309     -0.47516505860901
  C   1.72243549351378     -0.17585000453954      0.44304897282602
  H   -0.17846821901523     -1.18610831110313      0.62540907700198
  C   2.33356083156445      1.03637338093964      0.13278859042946
  H   2.32489370393122     -1.03819342157818      0.70340561401707
  H   3.41502717601129      1.12988507659838      0.15010201706302
  N   1.65319776039347      2.14289455269985     -0.19538009593367
