21
Coordinates from ORCA-job opt
  C   -4.03309946674317     -0.19544957064995     -0.40884432425480
  C   -2.64358204185636     -0.27219462473085     -0.39624028413817
  C   -1.87112764768205      0.81798883263114      0.02617652800747
  C   -2.52817161702119      1.99271625905690      0.41579121752308
  C   -3.91749583473079      2.06931375956744      0.40234572426477
  C   -4.67518348393979      0.97510065662743     -0.01017193503271
  H   -4.61481025834440     -1.05341518401499     -0.72672334839226
  H   -2.15639668977250     -1.19907913688435     -0.67767206474634
  H   -1.94689196233060      2.86227510984183      0.70305643257521
  H   -4.40807736237760      2.98837213036514      0.70277804268873
  H   -5.75745893428641      1.03430873967241     -0.02127137121234
  C   -0.39969403692318      0.75168636809811      0.01707624736678
  C   0.28701081003924     -0.03768490347775     -0.91633129261952
  C   0.37467236677217      1.43817990180290      0.95817951718862
  H   -0.26625339929612     -0.56844195751842     -1.68581793136534
  C   1.75757095415346      1.31784031137435      0.91623217167917
  H   -0.10227577319424      2.03535242150238      1.72785017582588
  C   2.33251786925969      0.50272427520338     -0.05478067913911
  H   2.38336166107468      1.83423849720310      1.63465052190654
  H   3.40975860449890      0.37931755332251     -0.10808419877175
  N   1.61662724270029     -0.17014743899272     -0.96519814935392
