21
Coordinates from ORCA-job opt
  C   -4.03238258679905      0.93837474426384      1.17529785599086
  C   -2.64144391424666      0.95005947044160      1.24842771892025
  C   -1.87235587983475      0.92412034278562      0.08062815730993
  C   -2.51536673453694      0.86966354769093     -1.16030571112783
  C   -3.90622554314577      0.85940858013815     -1.23194651793719
  C   -4.66683652176393      0.89352355471754     -0.06461424744806
  H   -4.62025079904366      0.95861174270770      2.08611877756283
  H   -2.14253830432945      0.97766794908750      2.21181234445713
  H   -1.91895099144287      0.84656096265879     -2.06675271650072
  H   -4.39589041110376      0.82507267816089     -2.19873910757484
  H   -5.74930156485892      0.88468992131422     -0.12111712311479
  C   -0.39730506610367      0.90874846792088      0.15612954288880
  C   0.31458708975986      2.06724199147037      0.48621472605928
  C   0.33773613240341     -0.23971792505775     -0.14375397395797
  H   -0.22725506018733      2.98359150998223      0.70668897038042
  C   1.72526278704952     -0.18343597899065     -0.07919765476982
  H   -0.17635011575607     -1.15675108278929     -0.41303491677381
  C   2.33225369741593      1.01912138613168      0.27341193057617
  H   2.33059246996739     -1.05544866690347     -0.29723943051269
  H   3.41366732244715      1.09444584903983      0.33303578393830
  N   1.64935199410960      2.13744995522938      0.55193459163375
