21
Coordinates from ORCA-job opt
  C   -4.00449962074602      0.17722961462394      0.94539428367106
  C   -2.61454383713898      0.20681300312342      0.99750663475222
  C   -1.87036954616387      0.95221753484071      0.07193106013900
  C   -2.56959987850260      1.64083408708124     -0.93018736798756
  C   -3.95977958098450      1.61225181240931     -0.98297861987847
  C   -4.68493528329240      0.88027089107741     -0.04591131035980
  H   -4.55551884707013     -0.39759525191435      1.68128248427586
  H   -2.11043847023416     -0.32311840554290      1.79707258587194
  H   -2.02927240693101      2.18324720590242     -1.69621442020527
  H   -4.47554053994625      2.15229540015445     -1.76902726350467
  H   -5.76771915191875      0.85628923553372     -0.08883792446499
  C   -0.39314499098241      0.93911763093157      0.09911310749076
  C   0.36213257609959      1.89650423029919     -0.59571061031227
  C   0.32813555750985     -0.06852363135109      0.75050428331275
  H   -0.13327642547896      2.71750924396354     -1.10360854426048
  C   1.71565773412813     -0.05924293204434      0.70040346782125
  H   -0.18494645448569     -0.86907601172009      1.26989118605833
  C   2.35743835670062      0.94491188021838     -0.01743857624364
  H   2.29338426890613     -0.83003013443638      1.19692909229619
  H   3.44042042635865      0.97538853975138     -0.08561528086658
  N   1.69741611417277      1.91570505709846     -0.66149626760563
