21
Coordinates from ORCA-job opt
  C   -3.99922676421245      1.84059651261853      0.74045088921975
  C   -2.61117519729323      1.80195692055498      0.83510955324307
  C   -1.87161106375280      0.87061553421183      0.09471258660501
  C   -2.55741348814049     -0.02793850681462     -0.73273856417234
  C   -3.94535543458930      0.01051853119148     -0.82596085632584
  C   -4.67075574774321      0.94517819729237     -0.08959904226721
  H   -4.55626738709027      2.57483598650599      1.31153707229361
  H   -2.09368480924792      2.52205876501137      1.45960772906650
  H   -2.00132472977420     -0.77963928750166     -1.28298002392236
  H   -4.46135187260324     -0.69634160743620     -1.46603634872743
  H   -5.75187265846079      0.97535784958896     -0.16203806791832
  C   -0.40452521124618      0.81621888133130      0.20390064987088
  C   0.24073213419441      1.07521528307039      1.42102047171904
  C   0.40629727552713      0.52594362577133     -0.89775524081019
  H   -0.34899716082900      1.27589938329659      2.31128841140946
  C   1.78553654041435      0.50443166665823     -0.73537812802490
  H   -0.03891566441874      0.34652624440245     -1.87067324308543
  C   2.31916494435983      0.78373849459534      0.51984171002538
  H   2.44160654012548      0.28892637339909     -1.57055909157114
  H   3.39329188295750      0.78399908015212      0.67729810613838
  N   1.56684687182310      1.06490107210013      1.59195342723407
