21
Coordinates from ORCA-job opt
  C   -3.97510728689219      2.00525764963608      0.49542023517855
  C   -2.58780684934428      1.95831185237703      0.60976652995957
  C   -1.87593843541260      0.85354357189385      0.13075892388971
  C   -2.57164185938998     -0.19408073806423     -0.48181617465702
  C   -3.95890583058241     -0.14658739543077     -0.59413911645559
  C   -4.66285603535052      0.95293034296801     -0.10608852349728
  H   -4.51791895182860      2.86630988248718      0.86886324056196
  H   -2.04662507472427      2.77973438009784      1.06823395512329
  H   -2.01997917071252     -1.05061890485020     -0.85592827108589
  H   -4.49013089349633     -0.96796845769983     -1.06179956530252
  H   -5.74253074226205      0.98966708660893     -0.19484376425681
  C   -0.40372421956811      0.81623808986406      0.22323866971485
  C   0.23264086325680      0.67922419141988      1.46221499796162
  C   0.40185792810327      0.85981714124126     -0.91634072205930
  H   -0.36612842849477      0.61846106758900      2.36758348317188
  C   1.78211420744007      0.79181387831797     -0.76596834306331
  H   -0.05267189999978      0.95664850183142     -1.89711411235171
  C   2.31159916530326      0.67217792694532      0.51657786699921
  H   2.44011000832675      0.83222302382883     -1.62599124381049
  H   3.38537512309386      0.61785680590888      0.66709722568486
  N   1.55926638253441      0.61204110302949      1.62327570829443
