21
Coordinates from ORCA-job opt
  C   -3.95305959974996      2.06595537628026      0.35833775232080
  C   -2.56498362954398      2.01054217865102      0.46209528382001
  C   -1.87687948669643      0.84469085485739      0.11227101513005
  C   -2.59673225123292     -0.26284619704055     -0.34683668185256
  C   -3.98472435053727     -0.20611616414394     -0.44956885882837
  C   -4.66491715106406      0.95813082884478     -0.09751491036603
  H   -4.47806030477208      2.97421828300171      0.63229613403801
  H   -2.00625946269757      2.87118431709364      0.81537704948477
  H   -2.06275931970413     -1.16789844740924     -0.61789552414960
  H   -4.53469388634444     -1.07086270483845     -0.80366480977253
  H   -5.74505376941750      1.00163460344654     -0.17755113601009
  C   -0.40264382305640      0.78711310808327      0.21140720278692
  C   0.22068477755308      0.46592491983901      1.42183802355567
  C   0.41445778710422      1.03055386367099     -0.89388209533871
  H   -0.38727883169238      0.26417354866804      2.30013854861549
  C   1.79376580430436      0.95088204742316     -0.73836686074048
  H   -0.03022075741925      1.27941053903510     -1.85196320432706
  C   2.30992431674473      0.62772098011157      0.51377582531844
  H   2.46157549705412      1.13563461771572     -1.57159353259366
  H   3.38247414164051      0.55788230934520      0.66695161635133
  N   1.54638529952736      0.38507213736478      1.58734716255760
