21
Coordinates from ORCA-job opt
  C   -3.94235285836326      0.59355431218771     -1.17714004593060
  C   -2.55386699447888      0.49939521810573     -1.11631433465715
  C   -1.87663219053150      0.80709441087185      0.06775898327311
  C   -2.60824309909372      1.20753092595724      1.19008608995840
  C   -3.99671150358621      1.30122097546039      1.12771007906991
  C   -4.66572950180333      0.99480591835142     -0.05568321472987
  H   -4.45900780933960      0.35250734486427     -2.09941617998899
  H   -1.98621505336690      0.18567123185353     -1.98638387311320
  H   -2.08290297507354      1.44341159017562      2.10989786249714
  H   -4.55575424422283      1.61215420463242      2.00316451238440
  H   -5.74622732203554      1.06722079833154     -0.10338729359379
  C   -0.40264314290498      0.70657562541865      0.13316340334652
  C   0.21468275234321     -0.48886301853850      0.51643229635523
  C   0.42028212759043      1.78908808029657     -0.18182757034995
  H   -0.39794678299295     -1.35083675357037      0.76823483171494
  C   1.79902895550252      1.62895229244432     -0.10040851284569
  H   -0.01920232646202      2.73422839629518     -0.48368777093165
  C   2.30882338685962      0.39432217751936      0.29246862849243
  H   2.47121759703605      2.44544674546966     -0.33677847085403
  H   3.38071833498328      0.23813149523128      0.36552027749013
  N   1.53968064994015     -0.65861197135788      0.59958930241270
