21
Coordinates from ORCA-job opt
  C   -3.89527176808191      1.15907906264367     -1.21560650572113
  C   -2.51048993518967      1.04583480512869     -1.14174227687210
  C   -1.87557332469372      0.76770723591678      0.07632928304055
  C   -2.66847564795241      0.63256187532637      1.22436375219432
  C   -4.05351902124400      0.74612975667312      1.15059763909444
  C   -4.67284274896446      1.00936778306594     -0.06921943056301
  H   -4.36705675347110      1.36217553114967     -2.17046975845204
  H   -1.92108144104236      1.13328983977824     -2.04778047489434
  H   -2.19942645648660      0.46908395386220      2.18778018850973
  H   -4.64823985061210      0.64244399179915      2.05120914522208
  H   -5.75157164076709      1.09924780800295     -0.12567822078905
  C   -0.40593715411358      0.68794631991431      0.15965238466954
  C   0.22696743007937     -0.06312913098329      1.16094876861001
  C   0.42370627990634      1.39994346900254     -0.71337421859164
  H   -0.36748059757527     -0.65642498486571      1.84946605493100
  C   1.80154516458468      1.31739844811353     -0.56080966911357
  H   -0.00338236031020      2.03278635814703     -1.48326486836752
  C   2.31937391667997      0.53988890246420      0.47090111992324
  H   2.46733079108956      1.86124213823077     -1.22064773551564
  H   3.39139364117410      0.46307807732673      0.62373644247639
  N   1.55103247699046     -0.14665124069689      1.32660738020877
