21
Coordinates from ORCA-job opt
  C   -4.03990476554842     -0.00827347372555     -0.73844303664277
  C   -2.65206313099626     -0.10252468293124     -0.71295455478530
  C   -1.87397438350667      0.81377482511294      0.01105212356176
  C   -2.54920965261861      1.80868783720833      0.73360706313710
  C   -3.93695478822851      1.90465602695098      0.70921622901236
  C   -4.69184195218491      0.99562898270815     -0.02713560165166
  H   -4.61180017269432     -0.72648873983950     -1.31514692153412
  H   -2.18049437708998     -0.88354291736931     -1.29488283078876
  H   -1.99672916300467      2.51548085175772      1.33960472957917
  H   -4.42787276548121      2.68721242666550      1.27680714911525
  H   -5.77309147445591      1.06833779222453     -0.04617467215534
  C   -0.39817736579125      0.70008510785109      0.06747034567456
  C   0.28350919648921     -0.38271084131233     -0.51117568407097
  C   0.40404312250756      1.69157874027979      0.64672660863088
  H   -0.26578280618042     -1.19538655306243     -0.97237098388450
  C   1.78499144307054      1.54992321148293      0.64532822180382
  H   -0.03496897317461      2.57915792571911      1.08449813764091
  C   2.34692630502754      0.42662832267032      0.04836344102386
  H   2.41903668705407      2.30678181964639      1.09203401416377
  H   3.42313776785515      0.28684028008612      0.02370361487509
  N   1.61222024895169     -0.53284794212352     -0.52712639270512
