21
Coordinates from ORCA-job opt
  C   -3.99591656104764      0.58709107945964      1.14389286996491
  C   -2.60374935934796      0.56348121549274      1.16895790459334
  C   -1.87085575863326      0.86700863983061      0.01665599439292
  C   -2.55225141012342      1.21726288813777     -1.15366656828077
  C   -3.94467031833291      1.23898584631734     -1.17770360458600
  C   -4.66860917038935      0.92368062351403     -0.02943996110760
  H   -4.55523074793463      0.35183056909917      2.04247496374130
  H   -2.07565879280552      0.31521646298075      2.08409174530133
  H   -1.98407017226473      1.46024021872267     -2.04583744971579
  H   -4.46400594056349      1.50328781061951     -2.09204293775277
  H   -5.75225738642593      0.94285204921504     -0.04794154408227
  C   -0.39566607181374      0.87886601834080      0.05549637669460
  C   0.30905308659298      2.08373719897596     -0.04632311909521
  C   0.34407886644128     -0.28877864507187      0.25359375004960
  H   -0.23814847420988      3.01409724161172     -0.17679629232695
  C   1.73015040568596     -0.20258347781474      0.31383429340716
  H   -0.16473109725053     -1.24285818911662      0.34667947999229
  C   2.33077444728555      1.04699008304538      0.18433418723591
  H   2.33952394723878     -1.08717596169737      0.45711612768707
  H   3.41103906996467      1.14686594376560      0.22570533167003
  N   1.64220043793375      2.18290138457186      0.00991645221689
