21
Coordinates from ORCA-job opt
  C   -4.00006171525995     -0.12965195933411      0.59245483800425
  C   -2.60903958426306     -0.16853280696436      0.58538492804384
  C   -1.86855469859100      0.85964886749017     -0.01191691534399
  C   -2.55553538262363      1.93424405626635     -0.59148707728531
  C   -3.94680462965695      1.97303688553806     -0.58297029392726
  C   -4.67345310907486      0.94143114937365      0.00813253870759
  H   -4.55851799781008     -0.93884119626908      1.04955461400081
  H   -2.09193410179135     -1.01959652456931      1.01591585917293
  H   -1.99629697801956      2.75732661811064     -1.02294058507246
  H   -4.46340093239017      2.81519430572631     -1.02956084284187
  H   -5.75695250947647      0.97244257251041      0.01452465162448
  C   -0.39680554069852      0.82560520239811     -0.00466961438307
  C   0.34307886808129      1.31813481788200     -1.08858790299318
  C   0.32417686407791      0.32529520121741      1.08391394416199
  H   -0.17418876701765      1.68939466400161     -1.96913964544562
  C   1.71235631514915      0.33724944859263      1.03825893930773
  H   -0.19707562723059     -0.04142224394083      1.96180484091766
  C   2.34383937192197      0.85736161382262     -0.08824064005079
  H   2.30022045137081     -0.03713485037466      1.86811223169244
  H   3.42718763613387      0.88922008787151     -0.15052555431356
  N   1.67875906716884      1.34259509065087     -1.14501631397662
