21
Coordinates from ORCA-job opt
  C   -3.92232694560721      0.69145072824819     -1.20454902094820
  C   -2.53333107777469      0.61621146165110     -1.13353804005815
  C   -1.87541293271945      0.83530486489648      0.08100965575741
  C   -2.62835734065442      1.11439721357783      1.22584822120051
  C   -4.01737038450235      1.19029406486243      1.15312550621823
  C   -4.66635344855087      0.97937368551847     -0.06186118817521
  H   -4.42371586568476      0.51943271361945     -2.15040926502127
  H   -1.95017100881318      0.38449542024661     -2.01899246247800
  H   -2.11828823349482      1.27684494431012      2.16986201898793
  H   -4.59250442697561      1.41205353158836      2.04511411175734
  H   -5.74736322358194      1.03682458068155     -0.11760999950502
  C   -0.40322818833637      0.73132605700840      0.15979055745294
  C   0.20282693530957     -0.42573879185964      0.66126137751170
  C   0.43063680237525      1.75533768507732     -0.29274802853506
  H   -0.41825701122331     -1.24729053573648      1.00931061638146
  C   1.80792389359464      1.58479634146644     -0.20961549584065
  H   -0.00010286377927      2.66641113172398     -0.69531456374919
  C   2.30576006313698      0.39545007980979      0.31607427225064
  H   2.48815300197854      2.35868450100901     -0.54537234125861
  H   3.37625598997358      0.23237567016222      0.39438369085155
  N   1.52622426532969     -0.60503634786163      0.74723137719965
