21
Coordinates from ORCA-job opt
  C   -4.03963064852259      1.38806446945384      1.06801576267956
  C   -2.65063401567301      1.37449188052976      1.15005912183106
  C   -1.87246263953087      0.87215619646656      0.09742848024637
  C   -2.53191911006281      0.41657662064164     -1.05290182851160
  C   -3.92076299021573      0.42969289542636     -1.13539336593281
  C   -4.68150816355603      0.91599778845372     -0.07465292125769
  H   -4.62080288264595      1.76792240845021      1.90076731426277
  H   -2.17371525121931      1.71567569035397      2.06118343710170
  H   -1.95633053352063      0.07353937152178     -1.90502268148848
  H   -4.40783285808238      0.07302092313192     -2.03602601602595
  H   -5.76349776936165      0.92791875374594     -0.13820857423622
  C   -0.39824325466035      0.89246155224555      0.15861578210690
  C   0.28889639468708      1.75217256707922      1.02871109819174
  C   0.38327132472742      0.00883816054226     -0.59481027989323
  H   -0.25953257589383      2.47582912127301      1.62340838709349
  C   1.76564847497508      0.04278215820975     -0.46955280821876
  H   -0.08386411047912     -0.71592026988221     -1.25178303080629
  C   2.33852575300557      0.94341219048461      0.42328455331211
  H   2.39195239889531     -0.63150380788313     -1.04182837122109
  H   3.41532155790326      0.98830912793313      0.55351386148131
  N   1.61812189923056      1.79156320182212      1.16819107928509
