21
Coordinates from ORCA-job opt
  C   -3.97973441143537      1.98286859924528      0.53706391081167
  C   -2.59241707144414      1.93747431382846      0.65019323744955
  C   -1.87526934819806      0.85482398147720      0.12966492790229
  C   -2.56664707327713     -0.17110061772724     -0.52366500192686
  C   -3.95393381905008     -0.12532832949383     -0.63465687088393
  C   -4.66280812576873      0.95153381963906     -0.10486151413349
  H   -4.52623586804493      2.82711269410502      0.94214422764870
  H   -2.05490514541424      2.74445403405724      1.13775547062131
  H   -2.01179957568057     -1.01161240869735     -0.92826149252737
  H   -4.48151211230165     -0.93069653257938     -1.13326579268723
  H   -5.74259830607206      0.98707356253340     -0.19271854699829
  C   -0.40412817291439      0.82093522912930      0.22138208335727
  C   0.23408677960755      0.74418257829626      1.46488357151754
  C   0.40043493395854      0.80637348184501     -0.91989066857748
  H   -0.36343799165888      0.72607590697040      2.37297681674856
  C   1.78068551456928      0.74451217480788     -0.76797325119628
  H   -0.05470832684136      0.85702151776666     -1.90387982876063
  C   2.31184224276197      0.68896600269282      0.51828763970729
  H   2.43760056659709      0.74216237029143     -1.62976722042302
  H   3.38577193429309      0.64189681291546      0.67009301463609
  N   1.56071337631409      0.68427080889693      1.62749528771431
