21
Coordinates from ORCA-job opt
  C   -4.01093975956301      0.73338110307800      1.17038765373206
  C   -2.61879048921144      0.72611862213446      1.21644788112720
  C   -1.87272849418775      0.89133413174943      0.04530324519353
  C   -2.53927742417981      1.07377089102253     -1.17022049099734
  C   -3.93157643986390      1.08026920140319     -1.21486201691869
  C   -4.66941898799976      0.90977761431383     -0.04508907692432
  H   -4.58105440615932      0.60505877164481      2.08369587030840
  H   -2.10152654325609      0.59397801493611      2.16127873448204
  H   -1.96042102760456      1.20774648843574     -2.07833022508092
  H   -4.43973665201237      1.22004631798106     -2.16241142744963
  H   -5.75279935109052      0.91619402240066     -0.08020233081479
  C   -0.39491170114189      0.89654702502043      0.09679752219172
  C   0.31087718365912      2.10160785612190      0.17909538382280
  C   0.34376910671091     -0.28775614506290      0.08584066687591
  H   -0.23508846142800      3.04148793834229      0.19684228859836
  C   1.73075386580732     -0.21340939026095      0.14796299999666
  H   -0.16614433985746     -1.24383550608051      0.02680041640363
  C   2.33243046720933      1.03999910827764      0.22261479549872
  H   2.33950393181043     -1.10990037965644      0.13886570746690
  H   3.41315080278829      1.13100445521726      0.27221724333515
  N   1.64492971957049      2.18958085898146      0.23996315915260
