21
Coordinates from ORCA-job opt
  C   -4.04619631515291     -0.05184301405075     -0.67570359703142
  C   -2.65799965550287     -0.14339022773603     -0.65488406748449
  C   -1.87541096633031      0.80582600718490      0.02047492155694
  C   -2.54636528014696      1.85031906961687      0.67367048874174
  C   -3.93448047606459      1.94346803177656      0.65392079748215
  C   -4.69431099636676      0.99231162663780     -0.02139739787744
  H   -4.62089596085838     -0.80211316573432     -1.20694497075255
  H   -2.19365612199553     -0.97000881990705     -1.17574817264437
  H   -1.99209826550960      2.60966944845653      1.20974459455091
  H   -4.42095200447318      2.76391423940782      1.16937983189772
  H   -5.77565157732474      1.06373551173829     -0.03754073926169
  C   -0.39610374997075      0.71199478674632      0.04514844210240
  C   0.29106711817975     -0.32708233478533     -0.60345877151156
  C   0.40150609088646      1.64959828422823      0.71364731066262
  H   -0.25109767142188     -1.09395289585378     -1.14375149161036
  C   1.78316078945824      1.51368218718479      0.70465803637938
  H   -0.03973425739509      2.48502332671062      1.24165069843657
  C   2.35065790629585      0.44053922391144      0.02643862886163
  H   2.41222339313293      2.23161733198530      1.21761639745316
  H   3.42711966921731      0.30352536894030     -0.00120242582304
  N   1.62021633134303     -0.47383198645850     -0.62271751412831
