21
Coordinates from ORCA-job opt
  C   -3.99826337272118     -0.14823238598170      0.55752733471843
  C   -2.60695036075176     -0.18152696591261      0.55886835410492
  C   -1.86847880927342      0.86958472835066      0.00104040208504
  C   -2.55456527914477      1.95686191497841     -0.55452447633879
  C   -3.94611652028735      1.98992943901072     -0.55399219752961
  C   -4.67175249214572      0.93772685250122      0.00120067447664
  H   -4.55692933508885     -0.97352332877895      0.98460029407692
  H   -2.08650204322893     -1.04135833295238      0.96785114381236
  H   -1.99311299581210      2.79124873122589     -0.96130411900863
  H   -4.46388913135208      2.84186716826698     -0.98020497826280
  H   -5.75540504552393      0.96394308743548      0.00081466829971
  C   -0.39716077643588      0.83503859152455      0.00530653379991
  C   0.33711079492395      1.27474031398124     -1.10434562660613
  C   0.32609848812956      0.36853721063235      1.10685624595277
  H   -0.18598161819008      1.61620652385192     -1.99374016279040
  C   1.71409294765513      0.36722885361570      1.05094004345051
  H   -0.19435619348097      0.03733413547021      1.99946254413227
  C   2.34097131350283      0.83674861557481     -0.10026400908671
  H   2.30555788645943      0.01981014011656      1.88990577110140
  H   3.42406698250422      0.85605747430110     -0.17163059056567
  N   1.67256856026191      1.28477723278786     -1.17136684982214
