21
Coordinates from ORCA-job opt
  C   -3.89948493486792      2.13631616475061      0.02780556981623
  C   -2.51086647475532      2.05451018736074      0.08711213050077
  C   -1.87286963737972      0.80955747831282      0.04954366955789
  C   -2.64902288830685     -0.35227108905758     -0.02667217953901
  C   -4.03769209472277     -0.26889957258898     -0.08771447561404
  C   -4.66531554483668      0.97510841367272     -0.06071859837798
  H   -4.38420945423963      3.10561989199730      0.06115623469397
  H   -1.91244398184864      2.95574071718175      0.17512656504042
  H   -2.15625913888162     -1.31880959612260     -0.05591260428987
  H   -4.62948684840284     -1.17473686257499     -0.15698796559810
  H   -5.74643048407703      1.03943808118160     -0.10612180970591
  C   -0.40543030423741      0.72259482770453      0.15003366287162
  C   0.19680664041790      0.01057348544045      1.19431204092516
  C   0.43418739519426      1.38729520476079     -0.74681423888273
  H   -0.42740956176452     -0.49354765724112      1.92800807379442
  C   1.81002059696096      1.28991316069087     -0.57655623277447
  H   0.00872647973598      1.95427993958260     -1.56868185613294
  C   2.30305575710542      0.53937299050304      0.48777394342123
  H   2.49364656908384      1.78262335503113     -1.25792380061430
  H   3.37272489249780      0.44158315477266      0.64549685697328
  N   1.51875301732481     -0.09326227535837      1.37073701393434
