21
Coordinates from ORCA-job opt
  C   -3.89612867603352      0.96018443364007     -1.23367254854602
  C   -2.50824279740535      0.89201021989910     -1.15150101084312
  C   -1.87279850660211      0.84013916884228      0.09480268872785
  C   -2.65376370518928      0.84671587754876      1.25657298123288
  C   -4.04169107935851      0.91678599973081      1.17305203167062
  C   -4.66581926322096      0.97337911723408     -0.07172678725192
  H   -4.37743456026501      0.99356110684731     -2.20467211912211
  H   -1.90938249112344      0.85780809685517     -2.05599871297988
  H   -2.16588893517311      0.82100250984865      2.22555055374591
  H   -4.63573172761446      0.93122249666898      2.07994454581040
  H   -5.74658114844884      1.02637159105835     -0.13615905296777
  C   -0.40633973601997      0.74623842564996      0.18051287511012
  C   0.20336746949851     -0.22391591912819      0.98608680624973
  C   0.42987712722360      1.58863078549702     -0.55676756334046
  H   -0.41490348307168     -0.91835561456078      1.54943638640139
  C   1.80633480052139      1.43692976258842     -0.44342967323991
  H   0.00218259960972      2.36003782669900     -1.18910196212443
  C   2.30580184695945      0.44788541734541      0.40006565262812
  H   2.48581187877114      2.07841219942385     -0.99223491891681
  H   3.37633262809487      0.30817836567665      0.51429304160120
  N   1.52599875884759     -0.38022386736491      1.10794678615419
