21
Coordinates from ORCA-job opt
  C   -3.98343569434992      1.95993313403808      0.57631680556742
  C   -2.59599935918403      1.91578023651279      0.68705289872777
  C   -1.87454105243641      0.85611615532225      0.12618601288754
  C   -2.56304327941858     -0.14805641496899     -0.56349899798430
  C   -3.95042053719902     -0.10363968481792     -0.67203575848215
  C   -4.66313082881273      0.95032568416158     -0.10269473286477
  H   -4.53270399481576      2.78696820990816      1.01199217969197
  H   -2.06180359185136      2.70825377402100      1.20131114032318
  H   -2.00614932369203     -0.97299945941480     -0.99635184783932
  H   -4.47522628192726     -0.89275034688172     -1.19876448032638
  H   -5.74310316183510      0.98499164326812     -0.18862510592078
  C   -0.40448914427951      0.82340071931507      0.21828206659064
  C   0.23480538189042      0.80576061552981      1.46372359666317
  C   0.40005987087090      0.75504228801517     -0.92132119034251
  H   -0.36177343575222      0.82814241367630      2.37235726882796
  C   1.78022397980327      0.69984703376578     -0.76727239777016
  H   -0.05464867015950      0.76224781022310     -1.90679159136527
  C   2.31216637410894      0.70584984346371      0.51987944113676
  H   2.43665242029026      0.65738143151926     -1.62839444037246
  H   3.38616878883572      0.66654197406434      0.67330794724850
  N   1.56139153991391      0.75386593927890      1.62834218560318
