21
Coordinates from ORCA-job opt
  C   -4.03425423041205      1.68396408401717      0.88239815530453
  C   -2.64648270717028      1.65761491206423      0.97628963514182
  C   -1.87489702652483      0.89413567385300      0.08955618053103
  C   -2.55016094277331      0.13244403167926     -0.87382958651090
  C   -3.93767794356358      0.15726892387524     -0.96875384878468
  C   -4.68901702646805      0.93414855277018     -0.09093651675144
  H   -4.60308765200745      2.29348211952252      1.57560353803289
  H   -2.16979535158989      2.27241420862821      1.72928602358726
  H   -1.99915616417220     -0.50858661406162     -1.55122585171496
  H   -4.43099883729577     -0.44102874360826     -1.72663283739266
  H   -5.77036152854815      0.95279914369371     -0.16275531396848
  C   -0.39818621186270      0.83249205300640      0.20972737493770
  C   0.27618773529252      1.35707925466771      1.32275172201774
  C   0.40606802232335      0.30810690087814     -0.80865510225420
  H   -0.27934727366024      1.77170143867017      2.15715349759487
  C   1.78701801045478      0.30536448770615     -0.66468764142377
  H   -0.03110203804735     -0.07987401844645     -1.72080866889630
  C   2.34182691980899      0.84500206753760      0.49100469722291
  H   2.42362641085302     -0.09806045548651     -1.44318128762813
  H   3.41792634680763      0.86556264742823      0.63494445320832
  N   1.60287248855558      1.36696933160492      1.47575137774643
