21
Coordinates from ORCA-job opt
  C   -4.00564389458664      0.10537189573277      0.88408849537384
  C   -2.61494782636968      0.12079475099622      0.92015295159096
  C   -1.87166359024181      0.93285028124205      0.05078338853545
  C   -2.58234876541567      1.71214017414398     -0.87493396206597
  C   -3.97306413998426      1.69792409737310     -0.91257775418104
  C   -4.69419231763279      0.89381507231487     -0.03390971194968
  H   -4.55028650950364     -0.52837750551201      1.57493596791897
  H   -2.11447738198859     -0.48880265127839      1.66174744916651
  H   -2.05645215428278      2.32899604223323     -1.59176004487201
  H   -4.49233016741279      2.31221681435128     -1.63955141681367
  H   -5.77755081497150      0.88151623835192     -0.06437087904094
  C   -0.39052668710896      0.91879579191574      0.07071894132617
  C   0.36761773401230      1.79863336591935     -0.71867930607962
  C   0.33717948316682     -0.00429963254954      0.83253581330397
  H   -0.12070764293177      2.55149912889718     -1.32669399117096
  C   1.72462824546649      0.00513923992586      0.78713015901701
  H   -0.16540107494006     -0.74037140656842      1.44705082807892
  C   2.36643597468467      0.92865620038208     -0.03083244347044
  H   2.30176941920713     -0.70192334892574      1.37138917263529
  H   3.44960911005523      0.95976511113847     -0.09517257294909
  N   1.70335300077829      1.81865933991601     -0.77905008435367
