21
Coordinates from ORCA-job opt
  C   -3.89578526265079      1.04049693686592     -1.23067249543538
  C   -2.50896758435418      0.95487569337036     -1.15149836460712
  C   -1.87348396001785      0.81190883735828      0.08828726544002
  C   -2.65777424999196      0.76076111922503      1.24751540710009
  C   -4.04466798976367      0.84802823660241      1.16739242144603
  C   -4.66752831407376      0.98746597809541     -0.07136447308995
  H   -4.37455359324726      1.14159170655133     -2.19822853652720
  H   -1.91317877804532      0.96857517048669     -2.05830104886092
  H   -2.17509325540268      0.68172006835361      2.21584954581754
  H   -4.63875064514422      0.81526658059617      2.07377863627497
  H   -5.74764154460814      1.05486969383894     -0.13302402631614
  C   -0.40672723091413      0.72424261520850      0.17153174535824
  C   0.21267268869196     -0.16397394750101      1.06104427477474
  C   0.42550983918436      1.51716917469881     -0.62394895146096
  H   -0.39683603913523     -0.82111877769885      1.67578544487616
  C   1.80278139963528      1.39152691340709     -0.49359333051814
  H   -0.00405363248367      2.23667906230783     -1.31322037934645
  C   2.31040231003095      0.48241027092447      0.43081271982548
  H   2.47665209005555      1.99634543859395     -1.08898079903944
  H   3.38185435313005      0.36678153591801      0.56189627515449
  N   1.53616839910472     -0.29262130720293      1.20194066913393
