21
Coordinates from ORCA-job opt
  C   -3.89369115756553      2.08876710085233     -0.38054891389561
  C   -2.50941334273254      2.01277508721854     -0.26418928339896
  C   -1.87786264386173      0.82938905466095      0.14535106563179
  C   -2.68815671862673     -0.28661227089809      0.40303322191361
  C   -4.07273273609461     -0.21206410158102      0.28749199442496
  C   -4.68410950300103      0.97573792538255     -0.10560256197386
  H   -4.35355066720391      3.02085863231078     -0.68925412807936
  H   -1.92433617861392      2.90356630539054     -0.45743546332704
  H   -2.24231595153682     -1.23511984370876      0.67406133072424
  H   -4.67300444459137     -1.09123769769760      0.49301143985349
  H   -5.76254146454861      1.03292494202504     -0.19782110410761
  C   -0.40298390319574      0.73966677926881      0.22057943368723
  C   0.23876675870116     -0.35569390150815      0.82003896236446
  C   0.43176371909712      1.69992916080288     -0.36435664616570
  H   -0.34216891625930     -1.12950462438523      1.30987302360582
  C   1.80968981309018      1.54101609614156     -0.30488019108529
  H   0.01687457721806      2.55484317980743     -0.88389174963977
  C   2.33203268312570      0.41428565286192      0.32145075569636
  H   2.47121524550868      2.27401407007982     -0.75153841691661
  H   3.40423623156588      0.25424426775305      0.37772038290217
  N   1.56329059952508     -0.52878681477735      0.87990884778567
