21
Coordinates from ORCA-job opt
  C   -4.00596635743036      0.06301529020025      0.84320146925999
  C   -2.61466575600526      0.05299370441160      0.85388198981920
  C   -1.87206360993293      0.89415159328588      0.01197616987844
  C   -2.58619284189366      1.74771098986082     -0.84302240265176
  C   -3.97746188999400      1.75909585941565     -0.85506787503560
  C   -4.69725457793210      0.91676375802172     -0.01197650357741
  H   -4.54880061625120     -0.60031257678880      1.50713863337899
  H   -2.11500417058668     -0.62525040656996      1.53323854509559
  H   -2.06499455762077      2.41768340349293     -1.51362138821154
  H   -4.49813387133627      2.43096091651067     -1.52804715341607
  H   -5.78099640368387      0.92553296757210     -0.02125964042281
  C   -0.38974402633692      0.87886803911308      0.02796791811315
  C   0.36865400786933      1.71438355011516     -0.80828084983032
  C   0.34017506587561      0.03418569603421      0.87408764277388
  H   -0.11840617398508      2.39819336177592     -1.49320831792253
  C   1.72802944916838      0.06077118701613      0.84811234222918
  H   -0.15862692968915     -0.64468431160825      1.55360825436528
  C   2.36943200074011      0.93278738149095     -0.02473933346890
  H   2.30521851367567     -0.58718332490034      1.49717719228328
  H   3.45290945774764      0.97983107185573     -0.07133944147786
  N   1.70489328760153      1.75349984969452     -0.84682725118217
