21
Coordinates from ORCA-job opt
  C   -4.02842773579407     -0.27166001674022      0.01890200233045
  C   -2.63714489064910     -0.34000584447689      0.00986672162866
  C   -1.87273583883929      0.83070429886946     -0.01333792461940
  C   -2.52022746311627      2.07032082539569     -0.01600470163848
  C   -3.91145345761824      2.13709587575613     -0.00796533887415
  C   -4.66760624621733      0.96657373458243      0.00974334807126
  H   -4.61281739111002     -1.18477617228472      0.03666275229637
  H   -2.13461873065149     -1.30180586837013      0.02127541517010
  H   -1.92710448749905      2.97902292333392     -0.03221662318559
  H   -4.40474885559084      3.10262036307587     -0.01587130099925
  H   -5.75027858838278      1.01925782828564      0.01639243129709
  C   -0.39636385724322      0.76133694868824     -0.00226125934301
  C   0.31616206750778      0.49090174605916     -1.17547916312519
  C   0.33739432477813      0.99643879842734      1.16184609574654
  H   -0.22491757895246      0.31629866187243     -2.10205909325757
  C   1.72508541990106      0.93549612951362      1.10338466371467
  H   -0.17755985739660      1.21643019666550      2.09140967680774
  C   2.33306987946763      0.64872629595546     -0.11601801627505
  H   2.32958775039363      1.10660941314243      1.98637021161142
  H   3.41458317483379      0.59398965541480     -0.19368349898750
  N   1.65112136217873      0.42942420683382     -1.24795739836910
