21
Coordinates from ORCA-job opt
  C   -3.99662341361846      0.38461535515876      1.07143108827515
  C   -2.60510096829935      0.37591830990631      1.10018051162291
  C   -1.86856508862204      0.89266557641606      0.02733258150707
  C   -2.55400620476109      1.42165275381336     -1.07307740153505
  C   -3.94576664205015      1.42820897275029     -1.10145928379913
  C   -4.67036803753631      0.91038367670566     -0.02958199866864
  H   -4.55524061984863     -0.01143968742517      1.91208172806396
  H   -2.08177629225896     -0.01005670129611      1.96901834425340
  H   -1.99085798790892      1.80333539318943     -1.91835315695328
  H   -4.46457678788497      1.83234096062378     -1.96346702880720
  H   -5.75409435147059      0.91677322726801     -0.05185879053944
  C   -0.39731819250879      0.89238681145582      0.06271164631865
  C   0.33067405855762      2.02518813711358     -0.32408567087901
  C   0.32905763697014     -0.22033739188044      0.49569611043586
  H   -0.19828345885931      2.92191119303860     -0.63665796576578
  C   1.71667914211895     -0.15438570122056      0.51078400273293
  H   -0.18958408339645     -1.12639457473904      0.79184713435398
  C   2.33816828939674      1.01924737856702      0.09206142238487
  H   2.31207395479375     -1.00106415311566      0.83175991064663
  H   3.42080666051251      1.09949043500050      0.08579058775801
  N   1.66570138667432      2.10256102866979     -0.31915377140589
