21
Coordinates from ORCA-job opt
  C   -3.99337128823673     -0.22603055054189      0.36379074586933
  C   -2.60132699974960     -0.24701771865532      0.38970509816233
  C   -1.87019021811011      0.89384386021929      0.04101445088697
  C   -2.55419604342228      2.04770727719639     -0.35656575869139
  C   -3.94650482436966      2.06779411947463     -0.38041766029039
  C   -4.66830195852202      0.93143178702580     -0.02013292608515
  H   -4.55096465715293     -1.11596664990589      0.63347313943537
  H   -2.07179111296446     -1.15131771921450      0.67234223207126
  H   -1.98801705175447      2.93175455273174     -0.63184613915902
  H   -4.46755435309311      2.96997581855680     -0.68066006068315
  H   -5.75197006137274      0.94678077516049     -0.04096548086262
  C   -0.39614107881064      0.85761014879842      0.03062676840722
  C   0.31159927834399      1.01785841998209     -1.16638664791561
  C   0.34153872713384      0.60263652120388      1.18877750366345
  H   -0.23350486307033      1.19003443329705     -2.09121215947390
  C   1.72769020208302      0.54757798901789      1.10288607600659
  H   -0.16895181591655      0.46483802380849      2.13657353776892
  C   2.33117088252231      0.73911525536396     -0.13736388856301
  H   2.33517773507494      0.36220185242698      1.98093164958402
  H   3.41172057688918      0.70423464399268     -0.23655641564402
  N   1.64488892449837      0.96793716006098     -1.26501206448718
