21
Coordinates from ORCA-job opt
  C   -3.91464336012876      2.11976901450365      0.16436992624533
  C   -2.52556888325412      2.04523741718326      0.23224752285275
  C   -1.87460495102088      0.81933767270855      0.05939257235250
  C   -2.63538220867887     -0.33328428649536     -0.16121673139224
  C   -4.02449326978085     -0.25703613116461     -0.23016572348564
  C   -4.66616420988079      0.96928112426801     -0.06792899096240
  H   -4.41044759824896      3.07436373631348      0.30061100792093
  H   -1.93686294855240      2.93667826497284      0.42369048625570
  H   -2.13097697434451     -1.28594069788576     -0.28690118844894
  H   -4.60545897880699     -1.15493643622554     -0.40862243050425
  H   -5.74732002124048      1.02785519718546     -0.11961046702442
  C   -0.40371597851681      0.73675260399072      0.16441927955841
  C   0.19845791449572      0.18034132710397      1.29838410343136
  C   0.43390234379178      1.25096498233231     -0.82715290533152
  H   -0.42562191192274     -0.21150082777613      2.09770328654095
  C   1.81048184117623      1.16674121525917     -0.65230590125302
  H   0.00641473155919      1.69893518223558     -1.71839092288781
  C   2.30421840087037      0.58033197416648      0.51008993711328
  H   2.49354150392452      1.54740722627453     -1.40256313881951
  H   3.37413486206868      0.49915008078073      0.67551093847030
  N   1.52110769649068      0.09255136026867      1.48143933936823
