21
Coordinates from ORCA-job opt
  C   -4.03135955205939      1.20433338324698      1.13621962071313
  C   -2.64124358161873      1.19989497564772      1.21089688814333
  C   -1.87032840531128      0.90007675860846      0.08119984169452
  C   -2.51947777030408      0.60133667355656     -1.12282338888440
  C   -3.90939766864660      0.60767040241384     -1.19671595504532
  C   -4.66877246411227      0.90889000035922     -0.06738598466957
  H   -4.61686840425968      1.43057243555136      2.02023014826481
  H   -2.14652323966077      1.40532115923431      2.15446448691105
  H   -1.92909557950288      0.39036461905416     -2.00859743698588
  H   -4.39955102697936      0.38412780754136     -2.13763378500554
  H   -5.75116970852976      0.91303954982703     -0.12504498481647
  C   -0.40094502944605      0.88975176698535      0.16053155327317
  C   0.29062180377955      1.91715095830216      0.81549667349195
  C   0.36091513567111     -0.12640777182299     -0.42248613245420
  H   -0.26393054102688      2.74240258949530      1.25478230848913
  C   1.74535789673043     -0.07621554893280     -0.31670204669434
  H   -0.12966946252575     -0.95151007534126     -0.92860598862214
  C   2.32813630932848      0.98643771870713      0.36930619060102
  H   2.36595535583513     -0.85244234028464     -0.74865153413683
  H   3.40664587530997      1.05089350703498      0.47506612018749
  N   1.62170105732882      1.97731143081578      0.92945140554509
