21
Coordinates from ORCA-job opt
  C   -3.89268719399533      1.33099160336353     -1.16815357362037
  C   -2.50762572701271      1.22980610254680     -1.08486953488888
  C   -1.87807975244391      0.78103541171632      0.08559318161161
  C   -2.69627902873427      0.46062829372323      1.17976216209441
  C   -4.08153998636408      0.56132400202638      1.09839546628715
  C   -4.68916835912045      0.99799109262597     -0.07582019372303
  H   -4.34807993405799      1.67454397046462     -2.09018082552835
  H   -1.92186262504054      1.47662071731979     -1.96123054860425
  H   -2.25959315709307      0.14367824071390      2.11771964301399
  H   -4.68560118462716      0.30555990932346      1.96163320873577
  H   -5.76824236698357      1.07798601955189     -0.13863615248500
  C   -0.40150504981608      0.70847174263733      0.17959373783044
  C   0.24171509512047      0.16551861293040      1.30365617905517
  C   0.43632872638773      1.22392413327608     -0.81758495758927
  H   -0.33620345612850     -0.26558550861433      2.11304377721515
  C   1.81431510717429      1.16000875563960     -0.66191771837021
  H   0.02686123090133      1.68906034308102     -1.70528150044875
  C   2.33675563846671      0.59403943090496      0.49592444836927
  H   2.47576705670971      1.55351940991384     -1.42481981382179
  H   3.40913262002538      0.53350347883334      0.65313688267340
  N   1.56659034663206      0.10037323802188      1.47303713219354
