17
Coordinates from ORCA-job opt
  C   1.00702176318905      1.10291272149010     -0.02982583535510
  C   -0.45147530394032      1.11950880072459     -0.05768665845481
  N   1.63490575147249      0.50860685473487     -1.05599105372388
  N   1.58175500251313      1.60414019368473      1.07610682073946
  C   -1.38324475770601      0.76950389301931      0.88875196861977
  O   -1.05483070066605      1.29396820125302     -1.26379229227081
  C   -2.63875409495240      0.76731060139796      0.22823423338029
  H   -1.17074548194056      0.55614705307381      1.92405569006468
  C   -2.38285296292598      1.09461365775535     -1.07454605348110
  H   -3.60599551023328      0.54732820489183      0.65073626934159
  H   -3.00587077372734      1.23723262072713     -1.94172607010401
  C   2.96745638575221      0.46048290415605     -0.97889779533079
  C   3.66784828564774      0.95766858781886      0.11303378889061
  H   3.48005816545417     -0.00743609518682     -1.81400060502203
  C   2.91339363821729      1.51811480038104      1.13599571336009
  H   4.74740356396761      0.90309262559565      0.16794006718367
  H   3.38132802987825      1.91750337448251      2.03071181216236
