17
Coordinates from ORCA-job opt
  C   1.00939206958438      1.08909241166775      0.00959682132705
  C   -0.45890499885256      1.09178729366795     -0.00736746447534
  N   1.61659823875492      0.31059202496972     -0.89915941702649
  N   1.60816821481180      1.80013550322388      0.97677977230596
  C   -1.39032115520307      0.51678480048763      0.81570829464414
  O   -1.05836714068749      1.56005875675625     -1.13657692304509
  C   -2.64641506289893      0.67638252233185      0.16907813409639
  H   -1.18585992547640      0.05244273354988      1.76718495826234
  C   -2.38799369718530      1.31495018018590     -1.01000875604783
  H   -3.61428581866214      0.35781709315341      0.52134650765831
  H   -3.00762641965525      1.66562918602681     -1.81825958208935
  C   2.95158008131429      0.28080146629511     -0.85124685741240
  C   3.67475450270022      0.98567490800989      0.10294370554242
  H   3.44604462464226     -0.33930093910688     -1.59274019185388
  C   2.94369541462746      1.73524279484881      1.01456187483196
  H   4.75590957379126      0.94608056030438      0.13859842804369
  H   3.43102949839453      2.30652870362765      1.79865769523812
