17
Coordinates from ORCA-job opt
  C   1.00403583724321      0.90778282869953      0.04066140157944
  C   -0.44624107752812      0.91562667384499     -0.03458518011330
  N   1.60822281848511      2.05023612819276     -0.33145988943197
  N   1.60786365293876     -0.21206744383205      0.46521781796745
  C   -1.33364500574417      1.89276993916613     -0.42303570937075
  O   -1.11565993291401     -0.20868088316927      0.32789867742827
  C   -2.62576347480139      1.32728135730845     -0.28850287182544
  H   -1.06238599333503      2.88073288264689     -0.75739304783210
  C   -2.43687481028132      0.05183184626415      0.17012622082624
  H   -3.57508955413261      1.79274880722436     -0.49988569287882
  H   -3.10556080517839     -0.75486456085719      0.42079515648362
  C   2.93999459441522      2.05715355805638     -0.26732179990232
  C   3.67013361029709      0.95295311075031      0.15803300200079
  H   3.43117769930210      2.97808022724612     -0.56708640219605
  C   2.94176801033235     -0.17326392760546      0.51823612279272
  H   4.75113488696272      0.97054064689153      0.20587591416970
  H   3.43428854393847     -1.07816019082764      0.86152528030253
