17
Coordinates from ORCA-job opt
  C   1.01245090163549      1.02372601457332      0.02713590112140
  C   -0.45581283580821      1.00713902855854     -0.07607965019732
  N   1.56375077716684      0.14784821354582      0.88067889714062
  N   1.66893561178960      1.88788724902084     -0.76100483691691
  C   -1.31985923423670      0.38422213258625     -0.93300338905277
  O   -1.14613717365014      1.64567313791274      0.90830482662519
  C   -2.62979734126872      0.67344113028103     -0.45638634645547
  H   -1.03973619546663     -0.19951772845897     -1.79507544841239
  C   -2.46696437648621      1.44061544099154      0.66040104431799
  H   -3.56985658311905      0.35651147650921     -0.87833967941103
  H   -3.15008742004430      1.90471623884394      1.35171151017096
  C   2.89849944565134      0.15862402078032      0.95730408113911
  C   3.67704417082254      1.01459335635599      0.18886253698498
  H   3.34659742312577     -0.54603878728026      1.65105191349407
  C   3.00356823871553      1.87144204732136     -0.67145888509027
  H   4.75749894108982      1.01115590775080      0.25486034835448
  H   3.53730765008304      2.56866212070753     -1.30986382381263
