17
Coordinates from ORCA-job opt
  C   1.01037551837795      0.95012760090761     -0.03687464283781
  C   -0.44391145109873      0.90007193968304     -0.16862885108055
  N   1.68558630998739     -0.13975414703036     -0.43664955111188
  N   1.54065414677590      2.09273443451394      0.42529423967238
  C   -1.37615416656445      0.00742863834179      0.29923384905256
  O   -1.06281174603094      2.01863003941309     -0.63357046835413
  C   -2.64535185965460      0.59779312803322      0.06558673669907
  H   -1.15606207810631     -0.95194271726006      0.73960952564793
  C   -2.39776264712988      1.81570660014516     -0.50385826190644
  H   -3.61608084058960      0.18670253992621      0.29171649324017
  H   -3.02924629812340      2.60598453613856     -0.87415316034945
  C   3.01523563831212     -0.08324663371855     -0.31640041971617
  C   3.67023249730928      1.04830115314473      0.15245119548670
  H   3.56398698488424     -0.96820065910146     -0.62407207200606
  C   2.87330868238146      2.12882100542426      0.50939191937114
  H   4.74903650265771      1.08829936415089      0.23056930422547
  H   3.30636580661183      3.05324517728793      0.87945216396709
