17
Coordinates from ORCA-job opt
  C   1.01538643660927      0.92163804447416     -0.01386896540777
  C   -0.45147738880753      0.87360574589179     -0.10697199565348
  N   1.70061386789354     -0.04334466137085     -0.64506010646598
  N   1.53647601079126      1.95626059751592      0.66285084733068
  C   -1.40357774141620      0.14347430449431      0.55036511891734
  O   -1.04111704863421      1.82978999240751     -0.87616563032828
  C   -2.66124363927861      0.66391889717883      0.13598062310484
  H   -1.21267241842284     -0.66765012670212      1.23463890174336
  C   -2.38393466055168      1.68356822190611     -0.72814948540055
  H   -3.64264925753190      0.33482331652440      0.43739086283852
  H   -2.99415523452049      2.35873392486556     -1.30421697098465
  C   3.03369151044764      0.02849799517417     -0.56013901032131
  C   3.67783069908655      1.05446802136425      0.11814972631859
  H   3.59085091811482     -0.75659699720763     -1.06194776208706
  C   2.87074258540223      2.01237353146716      0.71868585622381
  H   4.75761816012981      1.10736606141970      0.17345240336346
  H   3.29501420068834      2.84977213059671      1.26410658680848
