17
Coordinates from ORCA-job opt
  C   1.00279311548604      1.10967590184658      0.06715281033904
  C   -0.45337754475762      1.12636998498471     -0.04312138255853
  N   1.52916027998174      0.45376240725955      1.11280501608227
  N   1.68121140208738      1.67020730425862     -0.94737836665491
  C   -1.29346277532263      0.75021070260903     -1.06182402926758
  O   -1.16458536967906      1.31889472222476      1.10026620469373
  C   -2.60413180976588      0.75255118426981     -0.51777615357042
  H   -0.98766709619001      0.51730268029123     -2.06923402162002
  C   -2.46920247473118      1.10669266175975      0.79578429828499
  H   -3.52783475208566      0.51781201129575     -1.02186717781120
  H   -3.16900053257199      1.26291475871575      1.59972276839292
  C   2.86298640902861      0.40411210551754      1.16275861362332
  C   3.66512117195759      0.95996763983173      0.17389238328201
  H   3.29274109734616     -0.11358833196191      2.01502458017767
  C   3.01289789630407      1.58145709595017     -0.88323462448115
  H   4.74499134711578      0.90335638182349      0.22039045231563
  H   3.56475863579667      2.02900178932342     -1.70426237122778
