17
Coordinates from ORCA-job opt
  C   1.00216970537433      1.10202532367853      0.07311917977715
  C   -0.45272289520706      1.11850037776188     -0.03308177411212
  N   1.53395518080395      0.48386856070974      1.13873509247330
  N   1.67540309008398      1.62853863990454     -0.96330688463128
  C   -1.29275229428803      0.79086615395782     -1.06915530260260
  O   -1.16488733017227      1.26518694582346      1.11603371776506
  C   -2.60374907063224      0.77383061956885     -0.52731192365107
  H   -0.98542828067332      0.60147694865526     -2.08513428295674
  C   -2.46948690320831      1.07076226399763      0.80071399347229
  H   -3.52758665448369      0.56405629517345     -1.04206853798181
  H   -3.16996543202727      1.19346930333037      1.60988938034135
  C   2.86802655310767      0.43705629432917      1.18359554505467
  C   3.66510185181216      0.95915614105610      0.17258611691367
  H   3.30238361662513     -0.05027728883378      2.05131951768238
  C   3.00704915608439      1.54343419126224     -0.90228210254896
  H   4.74522153332242      0.90547350456777      0.21608144284775
  H   3.55466917347815      1.96327772505698     -1.74063417784304
