17
Coordinates from ORCA-job opt
  C   1.00710292731926      1.06554437404525     -0.04183248972335
  C   -0.44756347978079      1.07720392919131     -0.08080737744621
  N   1.65585373661090      0.58794357743449     -1.11451584437547
  N   1.56242210958797      1.47474166970171      1.11186840216471
  C   -1.38507345102139      0.87800321084763      0.90462710998220
  O   -1.05143546021147      1.13067656298870     -1.29680145481032
  C   -2.64256605716606      0.83558567708343      0.25139580930699
  H   -1.17138144498218      0.78608276813845      1.95724726273116
  C   -2.38347116618949      0.99632066377011     -1.08224420400179
  H   -3.61424303449082      0.69888616763431      0.69825656151514
  H   -3.00624868869309      1.04865028913814     -1.95975098284407
  C   2.98817135548228      0.55667434671862     -1.02650004265774
  C   3.66912340622399      0.96204499967850      0.11427767908398
  H   3.51767550298645      0.18118859888516     -1.89703895706340
  C   2.89391930809281      1.41099917093951      1.17678911363026
  H   4.74900844068962      0.92404663763217      0.17515699024993
  H   3.34610599554200      1.73610735617250      2.10897142425798
