17
Coordinates from ORCA-job opt
  C   1.00272821033193      1.01118779626680      0.05475439452684
  C   -0.45021683930883      0.97108044043327      0.02619776787971
  N   1.61263334797325     -0.17044554164415      0.25383784461873
  N   1.60032810661080      2.20269778393038     -0.09424538745280
  C   -1.32675772199607     -0.04424783428584     -0.27749711687989
  O   -1.12618553120299      2.13577457828943      0.20302463852461
  C   -2.62091190332801      0.53303453641948     -0.26048860937721
  H   -1.04892367202909     -1.06706659241295     -0.47395485945482
  C   -2.44259012661618      1.85657710688142      0.03739762331496
  H   -3.56419963379415      0.04510985588872     -0.44679379955135
  H   -3.11696554151525      2.68572109868025      0.17307988609230
  C   2.94619375788289     -0.14480735114041      0.27910763644564
  C   3.66999510325372      1.03334446215612      0.13629568602274
  H   3.44283992880406     -1.09863872969713      0.42991004962177
  C   2.93505146573713      2.19750827767136     -0.04694248700802
  H   4.75168444849073      1.04317525483109      0.16946517840665
  H   3.42269560070608      3.16069485773215     -0.16404844572987
