17
Coordinates from ORCA-job opt
  C   1.00494884644410      1.02221343042927      0.00073388469737
  C   -0.44437831471034      0.98535291089174     -0.09280314203598
  N   1.62176957559374     -0.16867664562590     -0.09791013696759
  N   1.59555342894995      2.21564995360284      0.16082396164075
  C   -1.33685181029050     -0.05725307824701      0.00167483842395
  O   -1.10991509155509      2.16158837286151     -0.22432699904758
  C   -2.62774649841452      0.51910623059821     -0.09366601093790
  H   -1.06956396191003     -1.09491968124447      0.11768911253543
  C   -2.43326369863795      1.86678662257743     -0.23006613381455
  H   -3.58014149180732      0.01450334554122     -0.06353204190410
  H   -3.09860599124709      2.70637184316390     -0.34465599020740
  C   2.95238836296131     -0.14865649080414     -0.01150441725918
  C   3.66941934831637      1.03101964216909      0.15342435669698
  H   3.45364616556928     -1.10920469372652     -0.08442808657162
  C   2.92910552444389      2.20337080338144      0.23256040218082
  H   4.74986682508790      1.03537435690358      0.21513586353108
  H   3.41116778120634      3.16807307752781      0.35994953903952
