17
Coordinates from ORCA-job opt
  C   1.00631624783536      1.10462152515068      0.04252903386865
  C   -0.45505395095137      1.11395849345606     -0.07665655116676
  N   1.52445357684308      0.33910285391052      1.01537175655136
  N   1.69378807161575      1.78763587670523     -0.88548955661239
  C   -1.30106201598122      0.60123265132749     -1.02524405484087
  O   -1.16023224166341      1.47896294251775      1.02912484250928
  C   -2.61150149206443      0.69636243410193     -0.48400695439184
  H   -1.00449895896108      0.21973095689290     -1.98921072697876
  C   -2.46891271407981      1.23646464378577      0.76259453270401
  H   -3.53909971343254      0.40014938386312     -0.94678214473288
  H   -3.16397564898244      1.51568663194114      1.53666272016017
  C   2.85800007494066      0.29833472394597      1.08450015213888
  C   3.66855625814776      0.97549196685727      0.18168306083924
  H   3.28008963524547     -0.30991171255573      1.87870694081972
  C   3.02654803908833      1.70937512484554     -0.80670621373636
  H   4.74823027256462      0.92602145865752      0.24078657647296
  H   3.58575455983526      2.25748004459684     -1.55876241360441
