17
Coordinates from ORCA-job opt
  C   1.00354247022411      1.02665502500486      0.02788317926776
  C   -0.44703150322888      0.99052832363084     -0.03256042700333
  N   1.60999695999516     -0.17268043443542      0.07811608105432
  N   1.60513150499262      2.22540599435280      0.03313445985162
  C   -1.32906294645685     -0.06020053312908     -0.13809114842115
  O   -1.12164566410792      2.16866796633351     -0.00983291783299
  C   -2.62345199644809      0.51462166136172     -0.17758707020029
  H   -1.05306864621514     -1.10122000081264     -0.17787828648225
  C   -2.44104086502992      1.86845790123250     -0.09604779598465
  H   -3.57000244744063      0.00431808934946     -0.25635806034888
  H   -3.11362687718223      2.71002614744374     -0.08489722504468
  C   2.94209327640672     -0.15434327254512      0.13324556514985
  C   3.67000465866210      1.03024659189065      0.14477241547978
  H   3.43524242585009     -1.12107147622375      0.17157956703493
  C   2.93922492548960      2.21003959787133      0.09304126139721
  H   4.75116781724632      1.03247559981075      0.19225436018280
  H   3.42992890724293      3.17877381886384      0.09832504189996
