17
Coordinates from ORCA-job opt
  C   1.00539384226205      1.01786305630288     -0.00604611835365
  C   -0.44377527034654      0.98007662583230     -0.10758763119526
  N   1.62702879780211     -0.16679642615482     -0.14148205565025
  N   1.59091063643276      2.20813871608376      0.19213902103768
  C   -1.33975021532909     -0.05360864857896      0.03639138610689
  O   -1.10575966333019      2.15355623151080     -0.27756374175909
  C   -2.62914233740237      0.52392459313340     -0.07277458431875
  H   -1.07604485163199     -1.08712651775495      0.19158896721631
  C   -2.43029398666304      1.86431336111192     -0.26338849370443
  H   -3.58326482887736      0.02496341680919     -0.01560902704728
  H   -3.09302687551062      2.70114695087986     -0.40895326562576
  C   2.95732618856204     -0.14483995368109     -0.04763890835920
  C   3.66919619009438      1.03186878042642      0.15554663826752
  H   3.46246847037929     -1.10081857171816     -0.14838457260688
  C   2.92432149886568      2.19873004811163      0.26713938705636
  H   4.74942917400389      1.03837185766360      0.22090098863497
  H   3.40238423068901      3.16093748002221      0.42482301030082
