17
Coordinates from ORCA-job opt
  C   1.00418305523899      0.96113599873786      0.07650658298293
  C   -0.45435586832256      0.91109284639807      0.07098871790343
  N   1.63602121809484     -0.15779559089259      0.46808796714719
  N   1.57864851950164      2.12453248603822     -0.26502992909622
  C   -1.33569112065843      0.00286593079873     -0.46268264697719
  O   -1.11869498529587      2.03304388212294      0.45727272795572
  C   -2.62338203349564      0.58882319664872     -0.35725240768412
  H   -1.07052265911343     -0.96286555051421     -0.86235195580239
  C   -2.43487200894486      1.81870401434599      0.20983461390292
  H   -3.56737913401366      0.16738450696749     -0.66339017561798
  H   -3.10158484690205      2.61159318328504      0.50531085847170
  C   2.97089345451222     -0.10640054072076      0.47330269521663
  C   3.67052655508787      1.04546568843684      0.13636358963125
  H   3.48592822611444     -1.01354332746920      0.77466514147025
  C   2.91348563692564      2.15278693724688     -0.22504212289364
  H   4.75206304675078      1.08011607323021      0.15962748102372
  H   3.38213394452008      3.09376326533977     -0.49711013763421
