17
Coordinates from ORCA-job opt
  C   1.00151395576648      0.89266461588588      0.11211555781353
  C   -0.45054462753171      0.84775116281648      0.02724144067505
  N   1.54823533552380      1.72692377185290      1.00918439006252
  N   1.66113484676017      0.13424814638481     -0.78037981379197
  C   -1.29357964030919      0.66995449889967     -1.04391102482770
  O   -1.16373677359809      1.19084004790163      1.13169175123968
  C   -2.60591014736522      0.89087063033427     -0.55526505973681
  H   -0.98400632821443      0.40583915011579     -2.04217505467508
  C   -2.47051052836206      1.20105821286335      0.77025932891538
  H   -3.53247682343393      0.83611481841404     -1.10390432193830
  H   -3.17136758274744      1.42964313749264      1.55585296362380
  C   2.88295864280780      1.76964038301892      1.03092595775584
  C   3.66648591840500      1.02328329431789      0.16004518829493
  H   3.32965912044368      2.43540340837641      1.76333480378296
  C   2.99288034493397      0.21530452872765     -0.74817123349556
  H   4.74734764027085      1.07335410331713      0.18314123720797
  H   3.52931664665032     -0.39219391071949     -1.47088511090622
