17
Coordinates from ORCA-job opt
  C   1.01444170926387      0.99919060674441     -0.03644621935641
  C   -0.44977057010093      1.00953699171015     -0.15217466660815
  N   1.70216113799049      1.75864268912203     -0.90242025530526
  N   1.53261811895532      0.18827225973749      0.89855153990672
  C   -1.40324610004457      1.92877017916789      0.19506759280862
  O   -1.03863786000441     -0.17095942336266     -0.48901494158152
  C   -2.65936958146277      1.28438062992852      0.02476590296332
  H   -1.21307045015669      2.93958434974812      0.51875517231037
  C   -2.38062778012899      0.01416134804674     -0.39154134315670
  H   -3.64071496657893      1.69820023839535      0.19218574377970
  H   -2.99034417294445     -0.83075095329591     -0.66454909391660
  C   3.03441962651419      1.72187421083376     -0.78881157422293
  C   3.67590643122530      0.92073096094552      0.14624529909173
  H   3.59359752423016      2.34475020033807     -1.48018554199873
  C   2.86628558452875      0.15572587138355      0.97646862688606
  H   4.75530405224752      0.89021368442486      0.22177310252348
  H   3.28844629646616     -0.50162684386790      1.73043065587631
