17
Coordinates from ORCA-job opt
  C   1.00110509249360      1.03322996738097      0.08629754202724
  C   -0.44984331898344      1.03838058085448     -0.00307975885012
  N   1.55764092603939      0.61098159007617      1.23134607285621
  N   1.65223458394738      1.41149648195993     -1.02759012030330
  C   -1.29507646635329      0.96518380200648     -1.08541056952895
  O   -1.16272437393129      0.99091625219799      1.15202639442734
  C   -2.60774164285465      0.88905534195577     -0.55649457111897
  H   -0.98511090028379      0.97416798832635     -2.11772354663086
  C   -2.47084089434943      0.91010794072901      0.80477142947110
  H   -3.53606009759158      0.82248735403376     -1.10087210379984
  H   -3.17119934018154      0.88626049331541      1.62305954236929
  C   2.89276482207743      0.59633130631918      1.26219656977307
  C   3.66772624558188      0.97058312703554      0.17205697418113
  H   3.34725877101326      0.26333521785019      2.19051969170620
  C   2.98436296980587      1.36953922099459     -0.97083013438723
  H   4.74910839095738      0.94834645611775      0.20878495035980
  H   3.51379723261282      1.67029587884640     -1.86995836255213
