17
Coordinates from ORCA-job opt
  C   1.00733015807208      1.00213125063508     -0.04451348179844
  C   -0.44468320975286      1.00153878513101     -0.09202199404479
  N   1.67421788216082      0.68702016281449     -1.16468361777291
  N   1.54695899888023      1.29591901096247      1.15167180378448
  C   -1.38873909094754      1.00918861541358      0.90851154645014
  O   -1.04786401154216      0.90975346557500     -1.30509559393008
  C   -2.64762533366443      0.92957415354853      0.26299823427253
  H   -1.17542211246754      1.06995534035809      1.96321946836924
  C   -2.38409742623402      0.87251357213106     -1.07861849585849
  H   -3.62410276529965      0.91294647671497      0.71993659971589
  H   -3.00549132188162      0.81263980412818     -1.95668338193617
  C   3.00648747671136      0.68523603087221     -1.07136128543523
  C   3.67146865994489      0.97570234401008      0.11277835417274
  H   3.55014088012591      0.43601020918580     -1.97777520662370
  C   2.87883831065871      1.27483854631171      1.21515414290646
  H   4.75184292890905      0.96705704067026      0.17525553577568
  H   3.31813797632677      1.50867419153748      2.18032837195263
