17
Coordinates from ORCA-job opt
  C   1.00721397199679      1.03432657968782     -0.04473062439321
  C   -0.44580471271364      1.04030252324660     -0.08909819519398
  N   1.66679399647815      0.63701780967934     -1.14302587122805
  N   1.55304694505675      1.38600116493870      1.13263550115151
  C   -1.38701993161643      0.94428038192824      0.90895573905746
  O   -1.04938646140719      1.02040575416119     -1.30565283816782
  C   -2.64544532246260      0.88270928227499      0.25995090807207
  H   -1.17339274979983      0.92928817793987      1.96535040552377
  C   -2.38389001498894      0.93428553994283     -1.08212321687492
  H   -3.61990326016154      0.80564193355711      0.71497571982600
  H   -3.00598253621150      0.93034476094466     -1.96169831811439
  C   2.99909707506962      0.62044033399424     -1.05125719673833
  C   3.67042266593108      0.96839533628246      0.11376535357128
  H   3.53711669225614      0.30765162087471     -1.94116364674721
  C   2.88475219409163      1.34272600443620      1.19771268446709
  H   4.75060001161851      0.94486678775468      0.17617553684935
  H   3.32918143686300      1.62201600835635      2.14832705893938
