17
Coordinates from ORCA-job opt
  C   1.00416666596133      1.02683797457192      0.01460867406944
  C   -0.44561441039014      0.99093556084877     -0.06254427733790
  N   1.61415057605734     -0.17150783581302     -0.01015988617227
  N   1.60208644868562      2.22455567585107      0.09772033061516
  C   -1.33235255893644     -0.06112277072041     -0.06826407813159
  O   -1.11659043666182      2.17009260341830     -0.11733870601625
  C   -2.62543392600631      0.51405771799434     -0.13530187644496
  H   -1.06000518302360     -1.10317434148369     -0.03031504169754
  C   -2.43786969580842      1.86935203838383     -0.16357946701265
  H   -3.57456084971570      0.00301782491499     -0.15930898911117
  H   -3.10746272851264      2.71176895932526     -0.21567465415103
  C   2.94550469992584     -0.15338107760439      0.06069815090119
  C   3.66979501717767      1.03018612956288      0.14904722705162
  H   3.44127815225806     -1.11937194758758      0.04326830756115
  C   2.93592119711322      2.20910481750431      0.16310895017651
  H   4.75063302040925      1.03232927740316      0.20348157973155
  H   3.42375501146674      3.17701939343026      0.22965275596872
