20
Coordinates from ORCA-job opt
  C   -2.94472044015006      0.37842679459699     -0.39750139607187
  C   -1.55525663003283      0.43946278970563     -0.44065642518887
  C   -0.89329440542524      1.60040601047723     -0.03160607493033
  C   -1.63277570343753      2.68876070206339      0.44073844373085
  C   -3.02364720015837      2.62865555077861      0.47099624989931
  C   -3.68110781681764      1.47196343829304      0.05658953545257
  H   -3.45415172954465     -0.52496555474393     -0.71342426259134
  H   -0.97323615703528     -0.40255481805531     -0.79916046831401
  H   -1.11645691497781      3.58879236306721      0.75965179861638
  H   -3.59347465059825      3.48253625383196      0.81969870368838
  H   -4.76362508142093      1.42318661740731      0.08551651517136
  C   0.58111620403074      1.63050907888152     -0.00773494757630
  C   1.28051610543598      1.88253177234624      1.17267523957378
  C   2.66654686653030      1.84151151873926      1.11701195016927
  H   0.75622005433468      2.09507019791923      2.09658299477836
  H   3.27038694166206      2.02867501583297      1.99984157577293
  N   1.23082721313465      1.31861157265919     -1.14170194564736
  N   3.32908871573131      1.55899154511817     -0.01096278438085
  C   2.56527429035190      1.30815816723542     -1.07841954973551
  H   3.08677033838700      1.06626998384586     -1.99913515241675
