20
Coordinates from ORCA-job mp2_opt
  C   -2.79054366295195     -1.11780024403284     -0.45327439414081
  C   -1.39845869688513     -1.10518066320525     -0.43414412864031
  C   -0.71304146251071      0.03031222968528      0.00912566792646
  C   -1.43380267464980      1.14235130588943      0.45579535060374
  C   -2.82463829050613      1.12041346321953      0.44886392945423
  C   -3.50582234394634     -0.00850851856312     -0.00594222384530
  H   -3.31696301808111     -1.99297400612820     -0.81686611028162
  H   -0.83925756856792     -1.96355281591464     -0.79249348219169
  H   -0.89290080964021      2.01758709501075      0.79817330136267
  H   -3.37940751151493      1.98249990064431      0.80137582017840
  H   -4.58964664757951     -0.02188059766489     -0.01549971851960
  C   0.75997917311115      0.03605627226553      0.06309511688369
  C   1.47259385488276     -1.05484090674320      0.56331414049070
  C   2.85619824977613     -1.01557864434040      0.46835426800587
  H   0.96131824303172     -1.89649359637891      1.01448548778329
  H   3.46800339250026     -1.83167551689077      0.84060623704058
  N   1.40062264766641      1.09590891928278     -0.45831929160602
  N   3.50648530614819      0.01344081159083     -0.08797210940412
  C   2.73307251052966      1.01718385938296     -0.51323302240953
  H   3.24482330918747      1.86711365289083     -0.95354183869063
