20
Coordinates from ORCA-job opt
  C   -2.95057978496506      0.41325499547928     -0.49396034345428
  C   -1.56095641509575      0.46857236754094     -0.52486650866969
  C   -0.89338055056943      1.58404285574453     -0.01000223217057
  C   -1.63051438635004      2.63628241314506      0.54293864120959
  C   -3.02141227125209      2.58240872392525      0.56060663760054
  C   -3.68365603965349      1.46861348339428      0.04771570745232
  H   -3.46362172917826     -0.45616369599567     -0.88941363358836
  H   -0.98012089241329     -0.34187628201247     -0.95064316547696
  H   -1.11388774798714      3.50889163996992      0.92991683007309
  H   -3.58817608214702      3.40922253414296      0.97360975684145
  H   -4.76662583590657      1.42464502574173      0.06653729159610
  C   0.57953194580333      1.60727991084151      0.00864350615619
  C   1.29030892004056      1.99315912128577      1.14592778400093
  C   2.67560267444355      1.95013669700269      1.08145200387815
  H   0.77773023367460      2.30141118568246      2.04898264492688
  H   3.28635694563220      2.23804841308561      1.93182151071720
  N   1.22218679933656      1.17358149191871     -1.08916824829031
  N   3.32971378294820      1.54396247348096     -0.01326785830061
  C   2.55646031699478      1.17149192253099     -1.03767784474388
  H   3.07003911664435      0.82803472309548     -1.93015047975779
