20
Coordinates from ORCA-job opt
  C   -2.95261984924025      0.42482781954597     -0.52147270977928
  C   -1.56286064761356      0.47703948897382     -0.54637322234903
  C   -0.89355711719738      1.57687081399562     -0.00047110348997
  C   -1.63040418614243      2.61853251359709      0.57297779342816
  C   -3.02136455985840      2.56773321342963      0.58496117159269
  C   -3.68500644158079      1.46843165126656      0.04342144161982
  H   -3.46649668559176     -0.43301001132438     -0.94044947751880
  H   -0.98245194197263     -0.32399200884053     -0.98986302805797
  H   -1.11437017667319      3.48231220202865      0.97978530810079
  H   -3.58722120469914      3.38646468146325      1.01496491132068
  H   -4.76815360032379      1.42702342359673      0.05751515062499
  C   0.57925342650115      1.59837782848365      0.01631866545798
  C   1.29432970210912      2.02325708230010      1.13704290430179
  C   2.67937750844970      1.98167624131211      1.06796885082671
  H   0.78639415892125      2.35812278025958      2.03310502693503
  H   3.29266344471331      2.29913812874565      1.90590829936489
  N   1.21934949108191      1.13239068721962     -1.06983165903767
  N   3.33035463918287      1.54183310992511     -0.01553667442674
  C   2.55358746297644      1.13444854587491     -1.02391561146980
  H   3.06419657695759      0.76352080814685     -1.90705803744426
