20
Coordinates from ORCA-job opt
  C   -2.97095313919078      0.35012738706423      0.20869007180635
  C   -1.57878454728360      0.37501970522804      0.23045732444724
  C   -0.89602222343387      1.58384214105101      0.06664061132838
  C   -1.61608098672428      2.76086332695932     -0.15561691845202
  C   -3.00709240751667      2.73417806640558     -0.16478794466769
  C   -3.68677546127275      1.53010209814315      0.01677572198987
  H   -3.49598647637139     -0.59067402074593      0.32956752348123
  H   -1.01650863411712     -0.54381830907381      0.36446338921230
  H   -1.07713846623874      3.68784836376386     -0.31754416072879
  H   -3.56239930186847      3.65186781993762     -0.32262223517751
  H   -4.77051105155608      1.51089607868943      0.00193809318297
  C   0.57842922088341      1.61102706750844      0.04547774390506
  C   1.32971859494103      1.13218655341062      1.11901287110038
  C   2.71085739208879      1.23475762749429      1.03103733493788
  H   0.84768776970004      0.70179850129513      1.98862085552779
  H   3.35333554705249      0.88071032286501      1.83159695469298
  N   1.17450650335121      2.18863719413422     -1.01083398831297
  N   3.32095079129943      1.78208471344572     -0.02695843514256
  C   2.50962207014848      2.23324349045369     -0.98825424534561
  H   2.98814480610886      2.69030187197038     -1.84865856778527
