20
Coordinates from ORCA-job mp2_opt
  C   -2.78691027711400     -1.21912134939804     -0.09225570136569
  C   -1.39728279239513     -1.19066513020442     -0.05719630340646
  C   -0.71567501293264      0.02891392318009      0.04391455542225
  C   -1.45759000398774      1.21534561941955      0.10885970352599
  C   -2.84800205247688      1.18158572932873      0.07671604226382
  C   -3.51942324083976     -0.03481070402852     -0.02806139853182
  H   -3.30119725069693     -2.17010328552025     -0.17376385837332
  H   -0.82040728584030     -2.10554761532515     -0.10864559540396
  H   -0.96033729702724      2.17254059118033      0.21033169074659
  H   -3.40796108200761      2.10819589123930      0.13362382568936
  H   -4.60281776399043     -0.05916905981794     -0.05542887485085
  C   0.76270920308619      0.03564602974900      0.04989250475710
  C   1.51938147730372      1.20242917912934     -0.08127888001417
  C   2.90076276150641      1.07990011411914     -0.10673354955266
  H   1.06168853960680      2.17709859175721     -0.18114390751719
  H   3.53534996742096      1.95527118135096     -0.20679270825741
  N   1.38112124336021     -1.15522309210522      0.14166174833719
  N   3.52293184262006     -0.10157433027649     -0.02238642234068
  C   2.71283967578990     -1.15810396836459      0.09537793840892
  H   3.19293534861440     -2.12915231541305      0.16476719046300
