20
Coordinates from ORCA-job mp2_opt
  C   -2.76899376455098     -1.08804382846074     -0.53671160578146
  C   -1.37698445259348     -1.05098601962935     -0.51565246200461
  C   -0.71294627330629      0.06162202040929      0.00878816043147
  C   -1.45313438645314      1.12063196909022      0.54192503322504
  C   -2.84390599366970      1.07439451170037      0.53185456501738
  C   -3.50409747827100     -0.02864738911912     -0.00832172667711
  H   -3.27924492505415     -1.94458133429289     -0.96246443080462
  H   -0.80014765261079     -1.87312362577005     -0.92730765675725
  H   -0.93119673132498      1.97783596363879      0.95332040195055
  H   -3.41394329053169      1.89641652322534      0.94964741730036
  H   -4.58745443182665     -0.06132530270936     -0.01903029807211
  C   0.76228705731814      0.07427678320265      0.06942003931214
  C   1.45863738836624     -0.95166671266301      0.70919201748717
  C   2.84218403767743     -0.95233506760908      0.60238454838255
  H   0.93238087190805     -1.71860214333179      1.26469362237565
  H   3.44299784188960     -1.72188648644881      1.07760448885939
  N   1.41504429095833      1.04074024153845     -0.59727091544819
  N   3.50453110044316     -0.02284163380633     -0.09627764809347
  C   2.74589837443193      0.92698071920114     -0.65142789290210
  H   3.26898141719997      1.69653281183427     -1.21017565780079
