20
Coordinates from ORCA-job mp2_opt
  C   -2.80889586114158     -1.15344189002190      0.34693800955103
  C   -1.41833942404094     -1.15497697304543      0.36010827529354
  C   -0.71235906989945      0.00603359074712      0.02752504225796
  C   -1.41524859404033      1.15652732031986     -0.34657336843096
  C   -2.80690017110573      1.14949535704112     -0.37157017281646
  C   -3.50709697850915     -0.00231048538018     -0.01769086448151
  H   -3.35095808461742     -2.05230314568376      0.61805762986275
  H   -0.86345885334372     -2.04681431206799      0.62757399258361
  H   -0.87248439698803      2.04692844603550     -0.64652132988408
  H   -3.34479040073353      2.04057767719774     -0.67470816100849
  H   -4.59094247164006     -0.00545004180001     -0.03354385414387
  C   0.76079335702056     -0.00236781908595      0.04155247310110
  C   1.50035476964619      1.11448266071375      0.43461141686368
  C   2.88256702924247      1.03094841449892      0.35318908213800
  H   1.01423876953952      2.00845048680055      0.80518988027184
  H   3.51240799589801      1.86550726369480      0.64582606572529
  N   1.37881974682310     -1.12302429910671     -0.36934752649242
  N   3.51012152040882     -0.06753818080776     -0.08358324869621
  C   2.71266879422836     -1.08843857128934     -0.41349325490029
  H   3.20433932325290     -1.99274749876033     -0.75790708679450
