20
Coordinates from ORCA-job opt
  C   -3.00649462649082      1.45259019025171      1.29145972717108
  C   -1.61993780611167      1.56398672921066      1.32673943683861
  C   -0.89953358282555      1.70795969904942      0.13779121458219
  C   -1.57697824489730      1.71705041742521     -1.08509680561637
  C   -2.96558303292593      1.61768102593769     -1.11584718361138
  C   -3.68163145484360      1.48048103057893      0.07174630899065
  H   -3.56129255750134      1.33857867107987      2.21593051358323
  H   -1.08556694572302      1.55103387166719      2.27042590480360
  H   -1.01526420677362      1.82720440350612     -2.00742632140567
  H   -3.48790649422091      1.64496303151413     -2.06550129806106
  H   -4.76217155321000      1.39742548046087      0.04735423176265
  C   0.57428444010170      1.74844104770591      0.17720425050385
  C   1.34247226944682      0.81087736946074     -0.51338380488044
  C   2.72158006799126      0.89020471235998     -0.38061557462268
  H   0.87456993998390      0.04765375292232     -1.12348308075114
  H   3.37666452944879      0.19114070647794     -0.89170787691170
  N   1.15309585181321      2.66370254909811      0.97254419547207
  N   3.31447452214555      1.81294998567629      0.38627674081739
  C   2.48795188943798      2.64666080105791      1.02470132292751
  H   2.95226699515454      3.39441352455898      1.65988909840761
