20
Coordinates from ORCA-job opt
  C   -2.96788049088929      0.32227047754997     -0.01240633979671
  C   -1.57524801429512      0.34693885270231      0.00319565925111
  C   -0.89666249856411      1.56708428054508      0.04716340238148
  C   -1.62034470240734      2.76166967654651      0.05763038429773
  C   -3.01238454205491      2.73383016494849      0.04735132245128
  C   -3.68772245830998      1.51503613453314      0.01244388962849
  H   -3.48999825491232     -0.62715055062839     -0.05010576630419
  H   -1.00980841932287     -0.57894819880921     -0.02372210250499
  H   -1.08896255550777      3.70746027211201      0.07084413360980
  H   -3.56986669128801      3.66360167625726      0.06079452471087
  H   -4.77144433800217      1.49522913054771      0.00083081544260
  C   0.58295192966972      1.59902409513424      0.03877145201619
  C   1.31770520645189      1.37734532531856      1.20229306070556
  C   2.70111396150193      1.45101535866776      1.11025990907152
  H   0.82169081440382      1.15606922626437      2.13965070896711
  H   3.33257176035641      1.28866371784958      1.97857411558195
  N   1.19340409637423      1.89280490217844     -1.12068865843508
  N   3.32596723756589      1.72913102322703     -0.03968986572664
  C   2.52915207896307      1.93610004608986     -1.09232205720003
  H   3.02076488026694      2.16782338896528     -2.03186758814805
