20
Coordinates from ORCA-job mp2_opt
  C   -2.81594512753754     -1.14050614105422     -0.37366639137703
  C   -1.42549920301546     -1.14750507130123     -0.39873092816091
  C   -0.71215697313048      0.00193171187253     -0.04341390134628
  C   -1.40575473900111      1.14443169880138      0.36959569623800
  C   -2.79729098782759      1.14264252320188      0.40657395492027
  C   -3.50535811006170      0.00364519687473      0.02787170374147
  H   -3.36454431662415     -2.02965754445091     -0.66297558996817
  H   -0.87732025768444     -2.03526982077586     -0.69281679261394
  H   -0.85461735446920      2.02372472575736      0.68693167273510
  H   -3.32873078218420      2.02713335897874      0.73896390664767
  H   -4.58902240927767      0.00463646837125      0.05324908788764
  C   0.76098187057952     -0.01227370535701     -0.06082913979212
  C   1.50015481243798      1.09528256970936     -0.47984623546396
  C   2.88168460148648      1.02053578423920     -0.37970356817728
  H   1.01263980429229      1.97565503986318     -0.88030042543632
  H   3.51200475734192      1.84798801196108     -0.69093469169861
  N   1.37733145248054     -1.11797720455613      0.39053530032103
  N   3.50761097008649     -0.06004106649127      0.10177978967260
  C   2.71058244068682     -1.07410345104615      0.45299872826185
  H   3.20179455142147     -1.96419408459793      0.83323182360900
