20
Coordinates from ORCA-job mp2_opt
  C   -2.77474814779032     -1.11536286041390     -0.46605746240008
  C   -1.38244638492851     -1.07608971292722     -0.46197979963652
  C   -0.71461158004380      0.06259769310559     -0.00406312667503
  C   -1.45018853689494      1.15072162282976      0.47220973308884
  C   -2.84180852806379      1.10603761282952      0.47354715911900
  C   -3.50588744842342     -0.02619805994829      0.00414368770713
  H   -3.28819138234304     -1.99675674295019     -0.83318774979933
  H   -0.80848273603090     -1.92225628683644     -0.82571753031894
  H   -0.92770999947419      2.03140567338205      0.83041961374418
  H   -3.40829026657215      1.95326020095729      0.84298261061577
  H   -4.58927399935727     -0.05911377174023      0.00412702337607
  C   0.76513249041567      0.07988914538591      0.02949434001480
  C   1.46587637740440     -0.65918066424360      0.98188095923681
  C   2.85052302999093     -0.68181903254169      0.88466645982635
  H   0.94222883235830     -1.19915680577569      1.76154027791134
  H   3.45573115024075     -1.23917044810812      1.59326467497595
  N   1.41144210397404      0.75965961055116     -0.93170209961594
  N   3.50842696263777     -0.03518688849770     -0.08473383118194
  C   2.74427813226975      0.65458454460726     -0.93681869024532
  H   3.26350393063072      1.19289817033452     -1.72329824974314
