20
Coordinates from ORCA-job mp2_opt
  C   -2.81459789359384     -1.14288995568407     -0.35736779954426
  C   -1.42278164714767     -1.15155446110219     -0.35183912977440
  C   -0.71334439018599      0.00173141384014      0.00055408114455
  C   -1.41345357827762      1.15980178510896      0.35546432785827
  C   -2.80411340184568      1.15971874116221      0.36211972775246
  C   -3.50852561334576      0.00970144144400      0.00632454904923
  H   -3.35778735701851     -2.03478500178372     -0.64841702271506
  H   -0.88533666282605     -2.04384543286665     -0.65570599654995
  H   -0.85380962562498      2.04939661255773      0.62055697468768
  H   -3.34131991115538      2.05742338236318      0.64642615624658
  H   -4.59248267555625      0.01356792716224      0.00676988992349
  C   0.75963257206202      0.00076359053410      0.02847000786753
  C   1.48881207104025     -1.11977453800852      0.43020530381841
  C   2.87238253350939     -1.04245629425336      0.36667388625934
  H   0.99405613832961     -2.01141865654153      0.79471309813327
  H   3.49445116644522     -1.88002601891153      0.66723051580039
  N   1.38834102168502      1.11834854930526     -0.37485130696346
  N   3.51080554552800      0.05317038351177     -0.06138905829392
  C   2.72239056072737      1.07776328241724     -0.40166721530158
  H   3.22263614725085      1.97971824974474     -0.73981398939856
