20
Coordinates from ORCA-job opt
  C   -2.95883786249707      0.81566726619197     -0.97155722846392
  C   -1.56886407955594      0.81879844172738     -0.93251448165593
  C   -0.89511440028466      1.50136215366489      0.08672402333418
  C   -1.63520865586869      2.16661284638097      1.07108259569924
  C   -3.02617859415929      2.15370149096285      1.03239374733788
  C   -3.69232930103862      1.48361867697255      0.00826467629804
  H   -3.47257407077233      0.29102898817586     -1.76929469086060
  H   -0.98804374813995      0.29760623275831     -1.68411655987289
  H   -1.12762481844569      2.66773250745238      1.88808727517386
  H   -3.59035431201509      2.66193786589442      1.80623700051139
  H   -4.77591200745130      1.47647347383328     -0.02232253962387
  C   0.57912423308869      1.50928557582773      0.10591434247095
  C   1.31372653481264      2.54218299757310      0.69148750397861
  C   2.69727660985088      2.44738551657877      0.65925507551058
  H   0.82913778361840      3.40126817826243      1.13737020370916
  H   3.32090887759342      3.21973082066186      1.09926539820256
  N   1.20894471569794      0.47939273212633     -0.48601380078453
  N   3.33476810498444      1.42013610226485      0.08552512156761
  C   2.54257857534610      0.49424622302255     -0.46357729923438
  H   3.03957641523610     -0.34316809033250     -0.94321036329793
