20
Coordinates from ORCA-job opt
  C   -2.94704116688672      0.99151420400079     -1.05647741855351
  C   -1.55776900297930      0.95212206626663     -0.99497322491269
  C   -0.89361360882642      1.43708173962129      0.13556592405672
  C   -1.63251575408970      1.97348588031955      1.19480560167593
  C   -3.02317908270386      1.99950930438269      1.13476384914547
  C   -3.68233259848660      1.51384549919794      0.00703793173093
  H   -3.45779019921309      0.61846560397527     -1.93706668830028
  H   -0.97553778441736      0.54109196443255     -1.81218141451788
  H   -1.11686712646543      2.34229118671707      2.07591020031202
  H   -3.59195095879226      2.39877332859635      1.96692827960860
  H   -4.76494681055517      1.53938315747119     -0.04184390235034
  C   0.57959585552972      1.45455504809113      0.16416217609941
  C   1.28774051619647      2.60893117720841      0.50033993942637
  C   2.67325178467662      2.54529557160398      0.46000832487607
  H   0.77201129581080      3.52219753890772      0.77127849642013
  H   3.28265474801850      3.40836257822465      0.71057303296661
  N   1.22336572074389      0.34036040808710     -0.22324200858723
  N   3.32898653819310      1.43507874576084      0.10131381727956
  C   2.55780590912639      0.39405581277651     -0.22662674594531
  H   3.07312872512043     -0.51139881564168     -0.53127717043057
