20
Coordinates from ORCA-job mp2_opt
  C   -2.84720314776488     -1.07252823033981     -0.51553953843922
  C   -1.45725834803596     -1.10365033188747     -0.57086537442984
  C   -0.71263857425398     -0.02336670304464     -0.08927492832738
  C   -1.36966451210474      1.06633340875805      0.48902698129623
  C   -2.76073189821421      1.08877854768077      0.55436291585862
  C   -3.50131493441574      0.02323898231511      0.04659728861911
  H   -3.42135140112106     -1.90607296712876     -0.90378923353052
  H   -0.93928068425187     -1.96056140270424     -0.98763456399120
  H   -0.78814569029389      1.88817988625947      0.89463490846491
  H   -3.26552688458975      1.93318939926356      1.00980158424576
  H   -4.58397851293294      0.04324671925544      0.09450433256177
  C   0.76335039518625     -0.06230260775885     -0.10899160890903
  C   1.49892676828831      0.95392644453134     -0.71968491989732
  C   2.87783264245917      0.93056859787775     -0.56569588333690
  H   1.00518644794782      1.73291216209738     -1.28821527856745
  H   3.50785161411825      1.69137404158260     -1.01649961403592
  N   1.37582925581746     -1.04194055746751      0.57600555633431
  N   3.49964477862007     -0.01303175188972      0.15118283075939
  C   2.70572655050152     -0.95060684242842      0.67702790338640
  H   3.19561313504017     -1.73034679497206      1.25153164193828
