20
Coordinates from ORCA-job mp2_opt
  C   -2.76665788039430     -1.08065424811962      0.54778881489682
  C   -1.37459397722052     -1.03751663789035      0.53182749511811
  C   -0.71381089976345      0.06956923872554     -0.00686891589338
  C   -1.45608267149082      1.11742077958089     -0.55751734006986
  C   -2.84714912074008      1.06689888233756     -0.54944119701670
  C   -3.50437306477926     -0.03094195683856      0.00405060566978
  H   -3.27465116698705     -1.93460129358794      0.98133921904994
  H   -0.79517924286192     -1.85309758914620      0.95260074789233
  H   -0.93795184143204      1.97171213375059     -0.97998760372294
  H   -3.41894478489573      1.88206894789856     -0.97808371543152
  H   -4.58758122967970     -0.06756178995624      0.01234678251486
  C   0.76401682645411      0.08616341119544     -0.05528062310462
  C   1.46067904987856     -0.82452427463479     -0.84926211871597
  C   2.84453615240164     -0.84142116753154     -0.74300372257257
  H   0.93418679447719     -1.49566360865859     -1.51711483319358
  H   3.44643557277597     -1.52559956252651     -1.33348759512202
  N   1.41445155113800      0.93007584185016      0.76225430676885
  N   3.50551991945757     -0.03393096458130      0.09452481913315
  C   2.74573768619099      0.81131510057444      0.79723998221534
  H   3.26771132747084      1.48063175755847      1.47368389158398
