20
Coordinates from ORCA-job mp2_opt
  C   -2.84549498553411     -1.17849722789349     -0.12837116242788
  C   -1.45471040886986     -1.21064032200812     -0.14867265033766
  C   -0.71524565077617     -0.02850429703259     -0.01518036310015
  C   -1.39731286006522      1.18749235102701      0.11763162309834
  C   -2.78719911518117      1.21399440036023      0.14201913140006
  C   -3.51787598022387      0.03267308798220      0.02181207843252
  H   -3.40510555240605     -2.10069116261450     -0.23697428408767
  H   -0.95288584621139     -2.16011494499911     -0.29405334405603
  H   -0.82062207951880      2.09972040181544      0.20705540721575
  H   -3.30337507798466      2.16083513590963      0.25405257838680
  H   -4.60151507927641      0.05590345450451      0.03911456492778
  C   0.76192387232268     -0.03483504787328     -0.03659632064277
  C   1.51668760371746     -1.19603983603210      0.14469861622200
  C   2.89853653711427     -1.07627652156941      0.14809884054268
  H   1.05477275099676     -2.16133986960567      0.30276735032491
  H   3.53258894447901     -1.94713410164901      0.28440864526526
  N   1.37994587131102      1.14999205830036     -0.18829974229700
  N   3.52147920974643      0.09873317076441      0.00045652818821
  C   2.71240019608879      1.15114628665888     -0.15557134751037
  H   3.19407865027128      2.11664898395463     -0.27396714954480
