20
Coordinates from ORCA-job mp2_opt
  C   -2.79367903745161     -1.18829091738935      0.25578871781882
  C   -1.40329944372768     -1.17562133697159      0.23765804068291
  C   -0.71348886314673      0.01585005485702     -0.01519090613719
  C   -1.43870441757085      1.18714309757639     -0.26442023945360
  C   -2.83003135245270      1.16742164077564     -0.25483696262636
  C   -3.51218518436806     -0.01810911443661      0.01208414254546
  H   -3.32000007625436     -2.11342566766531      0.46195435284264
  H   -0.83377056763135     -2.07911291906752      0.41959468126614
  H   -0.91908306665828      2.10916029368392     -0.50105520912836
  H   -3.38222543716476      2.07717386646766     -0.46152974692585
  H   -4.59603758000924     -0.03136870842898      0.02297470305295
  C   0.76097747032644      0.01979623891154     -0.01161513725782
  C   1.50385194273659      1.16199457129387      0.29329174842112
  C   2.88672606606440      1.05846673447320      0.26464970693167
  H   1.02560472684015      2.09370503331437      0.56670131605140
  H   3.51529278729140      1.91393785604331      0.49235639182795
  N   1.38318295460439     -1.13781439909274     -0.29582290326416
  N   3.51698004290135     -0.08442049608900     -0.03099140895353
  C   2.71697479223013     -1.12441240179697     -0.28774855629937
  H   3.20723824344077     -2.06460442645886     -0.51970073139483
