20
Coordinates from ORCA-job opt
  C   -2.97203211253584      0.34140027500637      0.16303637343115
  C   -1.57969153426979      0.36440434802029      0.18627837471040
  C   -0.89625656293838      1.57771097134775      0.06708617438184
  C   -1.61515071018438      2.76252939660987     -0.11198109995153
  C   -3.00636009722918      2.73743608810873     -0.12341965174171
  C   -3.68685030450378      1.52804172263051      0.01349888622589
  H   -3.49779854215974     -0.60272162303305      0.25013279571804
  H   -1.01783790684109     -0.55861889904309      0.28953580982975
  H   -1.07635658512580      3.69508548958226     -0.23963824871222
  H   -3.56077666498982      3.66070262421293     -0.24842676064340
  H   -4.77057836231625      1.51019240875154     -0.00275376955417
  C   0.57927981548346      1.60424939753628      0.04535852841759
  C   1.32919373515353      1.17847720656295      1.14162310100517
  C   2.71048786137711      1.27885964236390      1.05103946940279
  H   0.84568252520376      0.78760166879554      2.02890004194059
  H   3.35236121292833      0.96465014385351      1.86853456108661
  N   1.17557933819058      2.13022890075580     -1.03730004180223
  N   3.32116123447362      1.77521554168660     -0.03139004981404
  C   2.51083222205080      2.17731994455992     -1.01501565775993
  H   2.99011143823286      2.59223375169137     -1.89609783617058
