20
Coordinates from ORCA-job mp2_opt
  C   -2.81027557045018     -1.20601555048040     -0.00186782167101
  C   -1.41749584515349     -1.20673697682837     -0.00827917240599
  C   -0.71603591261529      0.00121621311995     -0.00861227457667
  C   -1.41872374303865      1.20843853897114     -0.00215174663177
  C   -2.81149426947270      1.20624856553816      0.00415833815360
  C   -3.50919391026158     -0.00025380229217      0.00573238486642
  H   -3.34924769831968     -2.14664503708467     -0.00423512063381
  H   -0.86980888787059     -2.14320624261993     -0.02043710847399
  H   -0.87197123773265      2.14549122078201     -0.00969932560608
  H   -3.35144326970195      2.14631788310866      0.00639577949577
  H   -4.59307260436353     -0.00082836178187      0.01066137533465
  C   0.76467967240910      0.00189448409127     -0.00523712647325
  C   1.48186577217228     -0.00998662513354      1.18962661536362
  C   2.86778919272817     -0.01042137611628      1.10529664451804
  H   0.97100815927647     -0.01861023520225      2.14474520052085
  H   3.48540537449325     -0.01909107343421      1.99828910079598
  N   1.39494413773149      0.01250823380455     -1.19106308275463
  N   3.51187418767411     -0.00048448676901     -0.06732632596301
  C   2.73129433489089      0.01045463989251     -1.15226404700956
  H   3.23809211760454      0.01869698843447     -2.11189328684916
