20
Coordinates from ORCA-job mp2_opt
  C   -2.77467981142945     -1.11569994511371      0.46562965569003
  C   -1.38237996421447     -1.07635448755758      0.46160586262390
  C   -0.71459581775260      0.06254581430359      0.00414762773607
  C   -1.45021519908956      1.15081826736819     -0.47172665663900
  C   -2.84183077546749      1.10606990611915     -0.47310094435990
  C   -3.50586153415314     -0.02638148829282     -0.00415078635434
  H   -3.28809664376428     -1.99726365905137      0.83238812918069
  H   -0.80837979035123     -1.92263942513873      0.82500987562863
  H   -0.92775946316313      2.03166077342996     -0.82958026890987
  H   -3.40835185636710      1.95340940882372     -0.84220739934343
  H   -4.58924671969224     -0.05934360186130     -0.00416569945909
  C   0.76514743522853      0.07994620005329     -0.02937880355353
  C   1.46595013388179     -0.65857734629698     -0.98214633653464
  C   2.85059705433381     -0.68116751209810     -0.88493670964949
  H   0.94234793669914     -1.19819009682853     -1.76208769923726
  H   3.45584436761383     -1.23810904481646     -1.59382372348972
  N   1.41140359287623      0.75925179776003      0.93218231748430
  N   3.50845087840511     -0.03499175040882      0.08480087859815
  C   2.74424608819990      0.65426489801934      0.93725438178074
  H   3.26343708820636      1.19218829158714      1.72402329880776
