20
Coordinates from ORCA-job mp2_opt
  C   -2.77576746792444     -1.09734977575604     -0.51371810038194
  C   -1.38365091931437     -1.06881410043017     -0.49197373692451
  C   -0.71301312353413      0.05078018088715      0.00910837348809
  C   -1.44707717054851      1.12655580005306      0.51720561842928
  C   -2.83790751157074      1.08852159561950      0.50729122852985
  C   -3.50464364111885     -0.02212089031731     -0.00909397120470
  H   -3.29117248791220     -1.95911320603076     -0.92239548612943
  H   -0.81213830614541     -1.90230566816056     -0.88791767072989
  H   -0.91915192493321      1.98909877012224      0.90915925807747
  H   -3.40318397991173      1.92305572816079      0.90636134616765
  H   -4.58820580554824     -0.04816414389238     -0.02037040665717
  C   0.76128610014082      0.06118625978937      0.06964342375021
  C   1.46263057667539     -0.99179632781670      0.65823066991473
  C   2.84629015321401     -0.97882820513975      0.55451808367642
  H   0.94076362759597     -1.78769917162077      1.17581292488922
  H   3.45042092898187     -1.76776105417362      0.99228632349254
  N   1.41030544033809      1.06402733250664     -0.54516965252815
  N   3.50505058259792     -0.01105615029906     -0.09402519717746
  C   2.74172770077309      0.96147566967213     -0.60148840640027
  H   3.26139122814470      1.76198035682624     -1.11840562228194
