20
Coordinates from ORCA-job opt
  C   -3.00839912191377      2.63451519875127     -0.38919361890313
  C   -1.61685892709900      2.67629421347542     -0.34285365584107
  C   -0.89997820646450      1.59081219633715      0.16603990530708
  C   -1.58524495876422      0.47147962129425      0.64391201518604
  C   -2.97600716266157      0.43032807357619      0.59145635506839
  C   -3.68911575011706      1.51090022104781      0.07512937094610
  H   -3.56051480245583      3.48094228744536     -0.78182261258921
  H   -1.08221705515358      3.55209908110432     -0.69617283162998
  H   -1.02532305416844     -0.36077050816640      1.05732512970021
  H   -3.50331183286636     -0.44282782225882      0.95886621418608
  H   -4.77197775211848      1.47872240290703      0.03833281325731
  C   0.57731895336135      1.64065591959390      0.24011118732280
  C   1.36673022964012      1.37900594167902     -0.87843425731216
  C   2.74475486177554      1.42232248117360     -0.71442741436092
  H   0.91555890618412      1.15143108395194     -1.83670637238854
  H   3.41693170407841      1.22850042424713     -1.54489585479332
  N   1.13293887791110      1.90400005309117      1.43394799675344
  N   3.31478516882401      1.69637148197916      0.46461102922935
  C   2.46896743113269      1.92064822390786      1.47460273153302
  H   2.91596349087547      2.13956942486265      2.43917086932852
