20
Coordinates from ORCA-job opt
  C   -2.98825658131022      2.30423552880477     -0.79446962834460
  C   -1.59806247711949      2.34282063671520     -0.74862854320778
  C   -0.89874831364854      1.55553259377711      0.17384765724456
  C   -1.61481129879241      0.73234597023507      1.05085020061227
  C   -3.00361642595289      0.69194725120354      0.99646819032498
  C   -3.69565344706164      1.47492859554380      0.07344723001405
  H   -3.51980564230327      2.92676465822869     -1.50535270694288
  H   -1.06247376904719      3.01367405154866     -1.41106299054504
  H   -1.06662325139380      0.13234043673649      1.76713562953475
  H   -3.54881401143700      0.04602660823169      1.67552997433738
  H   -4.77856994373622      1.44402214251232      0.03504686134427
  C   0.57508516043209      1.57306068725293      0.23362865165121
  C   1.36657486439912      1.96282759022024     -0.84866279548507
  C   2.74314384653782      1.95255979866643     -0.67804979227604
  H   0.93279876103058      2.24321533704304     -1.79967019594435
  H   3.40797330594565      2.24654719510451     -1.48466113783546
  N   1.14877204378977      1.18460577482315      1.38604224375571
  N   3.32390860739531      1.57881464378637      0.46808734464314
  C   2.48121260985169      1.20730445031505      1.43668701507080
  H   2.93096796242063      0.89142504925091      2.37278679204809
