20
Coordinates from ORCA-job mp2_opt
  C   -2.79003385081175     -1.19760275603400     -0.22156406994515
  C   -1.39985760740479     -1.18009152805261     -0.19528033599055
  C   -0.71409915062177      0.02001198532242      0.02727412834062
  C   -1.44527203564101      1.19636543364645      0.23331201419781
  C   -2.83634139170088      1.17232105516423      0.21400967462436
  C   -3.51379482397444     -0.02284386773389     -0.01980108261424
  H   -3.31197181519742     -2.13047212074772     -0.40262841881127
  H   -0.82702673476455     -2.08684941115720     -0.34720262015694
  H   -0.93244991891840      2.12812208883221      0.44419758866422
  H   -3.39217999144100      2.08701491794040      0.38638448482890
  H   -4.59752486091134     -0.03956708084147     -0.03796959169151
  C   0.76125532060758      0.02586342071942      0.02733669175687
  C   1.50701647381193      1.17488885519941     -0.24394877962049
  C   2.88963332728881      1.06486410718248     -0.23268483669599
  H   1.03300892358108      2.11842487358346     -0.48098458391039
  H   3.51954550220292      1.92549493139375     -0.43612697706351
  N   1.38300672848694     -1.14188858063482      0.26850131230682
  N   3.51833697821471     -0.09049129875251      0.01356765777824
  C   2.71621641375273     -1.13460409787909      0.24449024535368
  H   3.20441451344065     -2.08441292715091      0.43876149864853
