20
Coordinates from ORCA-job opt
  C   -2.99570080554171      2.48980883800356     -0.60750469130138
  C   -1.60450324917509      2.52863974988549     -0.56414388941441
  C   -0.89753796355715      1.56315122967088      0.15904568353764
  C   -1.59535774072470      0.58033679932625      0.86681915361796
  C   -2.98473402722242      0.53746601427576      0.81112163956583
  C   -3.68734640680832      1.49103510108229      0.07495457721364
  H   -3.53969144134963      3.24502988680237     -1.16346793717709
  H   -1.06274840661309      3.31513547409550     -1.08016844306458
  H   -1.03942593820602     -0.14294106461819      1.45294587558860
  H   -3.52171275953934     -0.23552697038840      1.34924607278773
  H   -4.77031608135185      1.45958587469350      0.03922002244394
  C   0.57309750239546      1.62110473089764      0.24165600305833
  C   1.36498799771230      1.68044154724209     -0.90558459079243
  C   2.74188278303691      1.69433176000405     -0.73405808202117
  H   0.91744591923823      1.70726456406233     -1.89185021282570
  H   3.41411471985797      1.74027782728299     -1.58553579311996
  N   1.13123128226815      1.53608939630542      1.46080767119957
  N   3.31249833513361      1.63831924182465      0.47529008987595
  C   2.46613520454428      1.55663285163152      1.50627910431858
  H   2.91268107590241      1.49881514792031      2.49392774650895
