20
Coordinates from ORCA-job opt
  C   -3.02501706940697      1.64556135167063      1.30137068583960
  C   -1.63676933142659      1.72074693266620      1.33751907667828
  C   -0.89890294812803      1.64362178465719      0.15153096727142
  C   -1.56917916140318      1.49582550276064     -1.06782608506229
  C   -2.95906954327989      1.43169155819380     -1.10005379663308
  C   -3.69008818165648      1.50010562128456      0.08439073583382
  H   -3.59060620362391      1.69845535551624      2.22486065928212
  H   -1.10858739839154      1.84174348692719      2.27613170496578
  H   -1.00551031056952      1.46516370141498     -1.99443952812657
  H   -3.47179186309634      1.33263429471372     -2.05017429578230
  H   -4.77247225146266      1.44603444199124      0.05879088905972
  C   0.57272407444428      1.68849576771313      0.20550908910361
  C   1.36841454497020      0.94654730335678     -0.66911724218342
  C   2.74483017119853      1.04885672534240     -0.52933290968606
  H   0.93042033580033      0.29854806197282     -1.41796016140815
  H   3.41651619304560      0.49700327965288     -1.17998095204037
  N   1.13398351680347      2.44498742064962      1.16461326342910
  N   3.31643462320603      1.81321269262529      0.40879993769403
  C   2.46758685401394      2.46439465472693      1.20987159569500
  H   2.91208394896272      3.08137106216373      1.98449736606978
