20
Coordinates from ORCA-job mp2_opt
  C   -2.84803304673268     -1.18116345676375      0.07702089542187
  C   -1.45737639351662     -1.21535085241497      0.09544208519486
  C   -0.71568846954816     -0.02979010536635      0.01336406138016
  C   -1.39803152828786      1.19088570439069     -0.06749112855157
  C   -2.78791174929323      1.21979912892721     -0.08842359607625
  C   -3.52013018923147      0.03561397436405     -0.01834730668495
  H   -3.40774454786023     -2.10733298126210      0.14275310437575
  H   -0.95948129815168     -2.17271390617998      0.19168575184563
  H   -0.82140848431896      2.10587592375596     -0.11962846646567
  H   -3.30275163525467      2.17141244751334     -0.15804943616367
  H   -4.60374627182223      0.06039908164081     -0.03372930244827
  C   0.76256824348212     -0.03592067329911      0.03417786679631
  C   1.52067704786127     -1.20309886030827     -0.08488678633243
  C   2.90225254985448     -1.08079084695888     -0.09418128611340
  H   1.06412767069931     -2.17814012537260     -0.18633290845443
  H   3.53788346015594     -1.95654861290016     -0.18365763496845
  N   1.37989406447341      1.15534323530473      0.12765481400521
  N   3.52343704043666      0.10094309278411     -0.00644266932901
  C   2.71210258264576      1.15796900301407      0.09743566016427
  H   3.19142595440884      2.12925782913119      0.16860828240406
