20
Coordinates from ORCA-job mp2_opt
  C   -2.84932885675277     -1.18235682623764     -0.00001761494212
  C   -1.45866131634193     -1.21796341518200     -0.00001000787920
  C   -0.71623785587284     -0.03003904593451     -0.00001834368437
  C   -1.39945944640927      1.19316298820381     -0.00003344342209
  C   -2.78936023844538      1.22360142139290     -0.00003898467421
  C   -3.52193695838935      0.03771569044098     -0.00003561428996
  H   -3.40871736946607     -2.11103473693845     -0.00000697145088
  H   -0.96290603977227     -2.18087260387836      0.00001034500235
  H   -0.82215508629021      2.10910598358432     -0.00003244161489
  H   -3.30402408652879      2.17783271409302     -0.00005894403074
  H   -4.60562034258145      0.06326286581091     -0.00004404472190
  C   0.76298365792904     -0.03560954973695     -0.00000404900449
  C   1.52364656857349     -1.20700599309144     -0.00001999360625
  C   2.90509433621154     -1.08379869864515     -0.00000259612225
  H   1.07107786293213     -2.18880084531208     -0.00004837646268
  H   3.54119391703242     -1.96376069182678     -0.00000907412162
  N   1.37953063376436      1.15983019160545      0.00001195297897
  N   3.52528571826401      0.10149827682289      0.00001768503274
  C   2.71206376863968      1.16244570838160      0.00001709241806
  H   3.18981913350367      2.13703156644747      0.00002942459553
