20
Coordinates from ORCA-job mp2_opt
  C   -2.83738365252545     -1.17028416068465      0.21086242228225
  C   -1.44625683753264     -1.19602932053628      0.22445723827435
  C   -0.71443972527358     -0.02135983885358      0.01110848771006
  C   -1.39967475424795      1.18063590295060     -0.20270825602425
  C   -2.78990380793486      1.19989325271957     -0.22315686566743
  C   -3.51430903448374      0.02588473845780     -0.01922612329629
  H   -3.39364777324296     -2.08400636991387      0.38698320594037
  H   -0.93374064249265     -2.12827414377421      0.43384545074631
  H   -0.82638645934267      2.08709797733980     -0.35455272055111
  H   -3.31144124982139      2.13395318251216     -0.39915490992081
  H   -4.59808887533323      0.04405887613405     -0.03235949627811
  C   0.76094367397073     -0.02726219060497      0.01901789512475
  C   1.50791594891184     -1.17711609280642     -0.24553667418501
  C   2.89047755492902     -1.06750907635053     -0.22681886544569
  H   1.03490509956557     -2.12109957640645     -0.48284360231050
  H   3.52124905331118     -1.92882030837148     -0.42464533779880
  N   1.38169063126503      1.14092433852777      0.26044595333828
  N   3.51814006383442      0.08831395508585      0.01998826677998
  C   2.71502293179072      1.13320005517321      0.24377296872775
  H   3.20239785465261      2.08337879940162      0.43831096255390
