20
Coordinates from ORCA-job mp2_opt
  C   -2.85118029752717     -1.06773865340077      0.53209007256474
  C   -1.46114887541967     -1.10200619303610      0.58917444445048
  C   -0.71326655236632     -0.03081742408885      0.09320016611165
  C   -1.36661792756152      1.05333395390235     -0.49905043237531
  C   -2.75762104772051      1.07945670657674     -0.56508247371502
  C   -3.50159536417720      0.02243611941149     -0.04471970232951
  H   -3.42800204093345     -1.89475923707812      0.93025639232515
  H   -0.94689950019624     -1.95536598352944      1.01790711157681
  H   -0.78204024283961      1.86891361372832     -0.91284876991008
  H   -3.25953154135958      1.92015584512933     -1.03051431360558
  H   -4.58416324092682      0.04497089884546     -0.09374591552362
  C   0.76368118203497     -0.07113369405719      0.11035446297744
  C   1.49830493216752      0.90762858149654      0.77995764331648
  C   2.87683066918602      0.89814220218179      0.62023792819984
  H   1.00367211743729      1.65022309652457      1.39456531244106
  H   3.50657648807414      1.63223922362789      1.11379424876066
  N   1.37605064449511     -1.00587842757226     -0.63475747803167
  N   3.49830182267624      0.00221564132391     -0.15542164854856
  C   2.70549587502604     -0.90475561253117     -0.73387574148306
  H   3.19576789993076     -1.64692965745451     -1.35590830720192
