20
Coordinates from ORCA-job mp2_opt
  C   -2.84194283886393     -1.17485153341499      0.17111163397594
  C   -1.45098975173770     -1.20421373860498      0.18882106026027
  C   -0.71483524992704     -0.02566651523268      0.01369798647164
  C   -1.39789210005906      1.18409992473956     -0.16151161465355
  C   -2.78794314406387      1.20742410772987     -0.18461469848112
  C   -3.51599802425365      0.02948819368833     -0.02124335479892
  H   -3.40037227694096     -2.09291082746169      0.31495669664879
  H   -0.94421195998872     -2.14538604534345      0.36890395078506
  H   -0.82238076555468      2.09351897484319     -0.28310323054630
  H   -3.30637395388560      2.14842798065595     -0.33026553268596
  H   -4.59970133743813      0.05053943192184     -0.03694316424599
  C   0.76140414022063     -0.03187808542234      0.02945518717449
  C   1.51252114952165     -1.18746189449745     -0.19643070926269
  C   2.89471901755358     -1.07188889331206     -0.18960891875428
  H   1.04516872146638     -2.14253695441656     -0.39669009712398
  H   3.52727545261301     -1.93796300906475     -0.35911676004511
  N   1.38049870934587      1.14533629336335      0.22800483796397
  N   3.51974657672207      0.09455895633951      0.00899817075055
  C   2.71338213773099      1.14303698014084      0.20166083714453
  H   3.19770849753915      2.10156865334850      0.35932671942267
