20
Coordinates from ORCA-job opt
  C   -2.98702151014504      2.33277939125630     -0.77070774818124
  C   -1.59680491128507      2.37129793009619     -0.72270418866731
  C   -0.89835429624039      1.55543652920338      0.17491451913642
  C   -1.61303953940184      0.70745187654325      1.02857269861891
  C   -3.00177324070948      0.66639112505930      0.97110423201745
  C   -3.69355048083710      1.47634229948655      0.07128367284191
  H   -3.51930369721563      2.97707531429806     -1.46135344755540
  H   -1.05834933837973      3.06183201313755     -1.36266364728609
  H   -1.06468037523709      0.08858821162210      1.72874324097548
  H   -3.54717891658017      0.00029146436439      1.63019397298506
  H   -4.77640316782229      1.44530292097556      0.03121163677836
  C   0.57442799010805      1.57887221071190      0.23804955362198
  C   1.36411161949691      1.92295722427739     -0.86075855297101
  C   2.74087630538354      1.91848749838287     -0.69128080536447
  H   0.92622249622050      2.16448918253239     -1.82078024109197
  H   3.40574496966045      2.17819136915552     -1.50954066130554
  N   1.14726618261822      1.23319825136710      1.40425788751738
  N   3.32172777294096      1.59032935525932      0.46878568838133
  C   2.48011711347739      1.25750762881356      1.45227707200785
  H   2.93096502394784      0.97817920345732      2.39939411754088
