20
Coordinates from ORCA-job opt
  C   -2.99365930581856      0.51387179852713      0.61987181357279
  C   -1.60296684489723      0.53966967301603      0.65017181505834
  C   -0.89889619980712      1.60230839686650      0.06987379587590
  C   -1.61865984651579      2.64025167495423     -0.53571316730005
  C   -3.00839864000010      2.61107764682929     -0.56161400829606
  C   -3.70307641937587      1.55021952216147      0.01703656568611
  H   -3.52379137310781     -0.31847663067042      1.06888212837087
  H   -1.07572839568846     -0.28672478037882      1.11141548676292
  H   -1.07060681409746      3.46064845671435     -0.98186211102853
  H   -3.55229361356466      3.42195913882104     -1.03309906096709
  H   -4.78668750131310      1.52904555631193     -0.00453703012620
  C   0.57808690134627      1.66353104533036      0.09702258226829
  C   1.36750613131737      0.75418855584708      0.80466142801466
  C   2.74492572055516      0.90545658400659      0.74234574206375
  H   0.93878013829741     -0.04092241069610      1.39913734154359
  H   3.40382813832860      0.22517200266150      1.27348751791445
  N   1.16250600132888      2.64740705666354     -0.60957796833264
  N   3.33360303782774      1.88007660957610      0.03990599957606
  C   2.49395759379568      2.70208342241070     -0.59687889985889
  H   2.94657029138905      3.50415668104749     -1.17153097079827
