20
Coordinates from ORCA-job mp2_opt
  C   -2.84371197098168     -1.11077774437870     -0.46232092461283
  C   -1.45216553480813     -1.14377074577028     -0.49256454572139
  C   -0.71564685502220     -0.04062898137386     -0.05404107736899
  C   -1.38185873139386      1.08395255410450      0.43950866588860
  C   -2.77400785749079      1.11169687328668      0.47471578133601
  C   -3.50641409424391      0.01660316775900      0.02061635816734
  H   -3.41131547110608     -1.96646412202491     -0.80985545322185
  H   -0.93033210505083     -2.02369541132029     -0.85350563561981
  H   -0.80668813282216      1.93158967194172      0.79786635157384
  H   -3.28626748800912      1.98543555959502      0.86127879082092
  H   -4.58974233619209      0.03979463462493      0.04663470103402
  C   0.76435408924937     -0.07028420353363     -0.05988304728927
  C   1.49270436132135      0.66164346025634     -0.99684000629082
  C   2.87488502673186      0.67407507033976     -0.86797151344469
  H   0.99140580230860      1.20458911816504     -1.78902408682194
  H   3.50079072945160      1.22532017047522     -1.56322088300054
  N   1.38292509260005     -0.75290995636581      0.91738417107779
  N   3.50515049686532      0.02422109085498      0.11746876191380
  C   2.71602078090602     -0.65759131706152      0.95314656904912
  H   3.21266219768668     -1.19801588957420      1.75267402253068
