20
Coordinates from ORCA-job opt
  C   -2.95736749135951      0.84751048629890     -0.98999223709222
  C   -1.56742409125034      0.84196375600951     -0.94644776899480
  C   -0.89466115395958      1.48911574765439      0.09583933086274
  C   -1.63341669710858      2.13130285277816      1.09604582920434
  C   -3.02440482394836      2.12599626029855      1.05331866488540
  C   -3.69015998497116      1.48973284389007      0.00749116744239
  H   -3.47152860717288      0.35063628601630     -1.80503273529697
  H   -0.98687277091825      0.33995858326076     -1.71144379599864
  H   -1.12287800304774      2.60656641798064      1.92688567239159
  H   -3.58887198043577      2.61413350629140      1.83978341070572
  H   -4.77365780198704      1.48903902742485     -0.02670508689537
  C   0.57889080896443      1.49796623894136      0.11624682611095
  C   1.30884926907917      2.55794702595047      0.65716155172756
  C   2.69282253925450      2.46894832689616      0.62438933199777
  H   0.81811213591377      3.43035353506264      1.06972342054240
  H   3.31432949385381      3.26138879272103      1.03035973157448
  N   1.21066255112622      0.44917715573072     -0.43904773384897
  N   3.33321297549331      1.42257945881685      0.08963178322808
  C   2.54456754045843      0.47175397085665     -0.42057090199619
  H   3.04479609201557     -0.38107027287940     -0.86863546055023
