20
Coordinates from ORCA-job mp2_opt
  C   -2.81028940849124     -1.20582362981331      0.00324501807188
  C   -1.41751376716113     -1.20654833590531      0.00969570916468
  C   -0.71605147084308      0.00140083501757      0.00868447765129
  C   -1.41873174944570      1.20862182983027      0.00081700876742
  C   -2.81149980873823      1.20643478720574     -0.00545928219163
  C   -3.50919701002306     -0.00006698911612     -0.00569092942076
  H   -3.34929216803099     -2.14643254759257      0.00662619119088
  H   -0.86982707372144     -2.14300441635307      0.02290170326705
  H   -0.87196467902884      2.14567293956389      0.00728952586682
  H   -3.35142776900318      2.14651311051139     -0.00872484954855
  H   -4.59307509038322     -0.00065783154580     -0.01062049966107
  C   0.76466076996494      0.00205867900020      0.00522895559969
  C   1.48176596774766     -0.01200537622829     -1.18965779839856
  C   2.86769507184528     -0.01249863169018     -1.10542838988495
  H   0.97085176463806     -0.02220633687154     -2.14473162606016
  H   3.48524217678149     -0.02274573616938     -1.99845211947994
  N   1.39501051042486      0.01463455272923      1.19099487663484
  N   3.51186776539017     -0.00071593042990      0.06713166075369
  C   2.73135658220063      0.01223252429481      1.15210211056737
  H   3.23823038587702      0.02198350356238      2.11167725711000
