20
Coordinates from ORCA-job opt
  C   -3.02989316236035      2.75403066417448      0.28526552198118
  C   -1.64077547040479      2.78833440416813      0.33512098975888
  C   -0.89934103175814      1.61653854489851      0.14334704635128
  C   -1.57400520382667      0.41058817457581     -0.08131862254716
  C   -2.96451298466943      0.38016706115593     -0.12358940594476
  C   -3.69722664868047      1.55191733377692      0.05389886184202
  H   -3.59478539923682      3.66851553415295      0.42736830682745
  H   -1.11170481484847      3.71532479267219      0.52029026762146
  H   -1.01850933409771     -0.51390362920956     -0.19247286543127
  H   -3.47643963319087     -0.56121376184030     -0.28842934676706
  H   -4.78041303708293      1.52713412488731      0.01882148856631
  C   0.57407648635814      1.67203058367208      0.19228004999319
  C   1.38330364785709      0.70707148054936     -0.41090634973407
  C   2.75773735641206      0.85080894873670     -0.29093149975239
  H   0.96438584628704     -0.11642674210551     -0.97437990454601
  H   3.43564508728197      0.13033089353236     -0.73858734632343
  N   1.12942984388947      2.70852792937705      0.84442603277209
  N   3.32038439903790      1.87210897026425      0.36555541510439
  C   2.46149432201791      2.75058081516989      0.89179685013858
  H   2.89615073101505      3.59253587739144      1.42144351008930
