20
Coordinates from ORCA-job mp2_opt
  C   -2.83151815324162     -1.11281323866529      0.42734358676402
  C   -1.44148385650157     -1.13160645554441      0.47383003842235
  C   -0.71199923295656     -0.00811925467847      0.07272123217954
  C   -1.38623226266990      1.11620020979982     -0.41413980830347
  C   -2.77729761829364      1.12594440431945     -0.47230714562693
  C   -3.50234452186404      0.01532559628709     -0.04479227458007
  H   -3.39385242184391     -1.98049390261207      0.75310647367808
  H   -0.90832613267574     -2.00992750421393      0.82020382114412
  H   -0.81857766389139      1.97207473949987     -0.76506334641139
  H   -3.29467670816530      1.99606709936274     -0.86018168655588
  H   -4.58542927995542      0.02530129799070     -0.08697976022210
  C   0.76173241435148     -0.03436065702564      0.09440334412249
  C   1.50042966213923      1.04972730322581      0.57117116054263
  C   2.88011111713998      0.99582207558992      0.43633005493831
  H   1.01106327231963      1.89855586256797      1.03324417877290
  H   3.51123900857984      1.80626298800132      0.78802843089288
  N   1.37541806433806     -1.10285176944534     -0.44112015270660
  N   3.50281237201657     -0.04170764265677     -0.13556168718765
  C   2.70663637370210     -1.03843031250516     -0.53452368458308
  H   3.19624056747220     -1.89542983929762     -0.98622777528016
