20
Coordinates from ORCA-job mp2_opt
  C   -2.85113366116886     -1.06806460299644     -0.53191709407308
  C   -1.46110338512315     -1.10222413679877     -0.58904157979253
  C   -0.71329898783823     -0.03085607205208     -0.09333481001332
  C   -1.36672769822190      1.05336152656384      0.49871449708692
  C   -2.75773115225022      1.07937559330420      0.56479065709725
  C   -3.50162808463473      0.02217718455591      0.04468322935418
  H   -3.42790152496401     -1.89522009680176     -0.92988116545304
  H   -0.94677839017511     -1.95562507542481     -1.01760066187229
  H   -0.78221350871913      1.86908137438469      0.91232780635854
  H   -3.25969607178499      1.92012755889120      1.03006916253306
  H   -4.58419721769041      0.04461745155171      0.09373460773982
  C   0.76364529970078     -0.07106728078946     -0.11051456827111
  C   1.49821031470592      0.90795140273786     -0.77980874633889
  C   2.87673135231047      0.89853671831353     -0.62004472878763
  H   1.00353064204319      1.65068198081016     -1.39421525237633
  H   3.50642746577853      1.63283473988050     -1.11336542725137
  N   1.37607743606364     -1.00599073414360      0.63432735967681
  N   3.49825480958488      0.00243879623084      0.15537286113252
  C   2.70550820797555     -0.90477874938343      0.73352233383278
  H   3.19582415440777     -1.64709657883410      1.35534951941771
