20
Coordinates from ORCA-job mp2_opt
  C   -2.80746912954202     -1.13487984274821     -0.39018863937633
  C   -1.41551301487401     -1.13753122791868     -0.38005632255690
  C   -0.71325193615420      0.01002558329267      0.00321707498553
  C   -1.41924005676555      1.15403880483319      0.38979316038940
  C   -2.80998044232828      1.14768091524523      0.39204914262718
  C   -3.50756820673300      0.00447208882324      0.00235270771404
  H   -3.34591147270904     -2.02119404008386     -0.70603371690672
  H   -0.87123928230871     -2.01912616544544     -0.70282397539208
  H   -0.86490901398976      2.03898512491147      0.68098697550846
  H   -3.35239027991031      2.03443385129980      0.69981313347653
  H   -4.59152031935665      0.00341573698038     -0.00050848928020
  C   0.75957832166549      0.01096468306983      0.04094140947778
  C   1.48372235619464     -1.10109508152355      0.47402649259650
  C   2.86738663921446     -1.03483158664320      0.39978251642060
  H   0.98364297145403     -1.97778305750383      0.86684252799747
  H   3.48678678434772     -1.86580329772226      0.72331080071035
  N   1.39164370016051      1.11179376028500     -0.40095758647174
  N   3.50920760077632      0.04141018539947     -0.07042769542474
  C   2.72530393133283      1.05970808358426     -0.43827352582420
  H   3.22914784952551      1.94637148186447     -0.80992899067092
