20
Coordinates from ORCA-job mp2_opt
  C   -2.83765855955203     -1.09867226133132     -0.45719637600607
  C   -1.44776324159075     -1.12187841810840     -0.50977334183842
  C   -0.71209404858872     -0.01251294774280     -0.08219136053723
  C   -1.37901264289529      1.10038383693361      0.43898808808137
  C   -2.76995390324827      1.11441121432399      0.50310339766380
  C   -3.50142946320190      0.01888679567136      0.04856820949093
  H   -3.40501498286253     -1.95490771252487     -0.80387761525567
  H   -0.92066003905402     -1.99350111924670     -0.88174592943250
  H   -0.80537764505006      1.94447274166044      0.80841129984619
  H   -3.28203500480761      1.97571532861062      0.91686115126630
  H   -4.58428349858208      0.03228365421127      0.09546333650585
  C   0.76221150792499     -0.04406023515886     -0.10400646072195
  C   1.50066744804171      1.02279086583916     -0.61804114118356
  C   2.87975863465793      0.97861537901217     -0.47273956387739
  H   1.01042616064625      1.85261473678507     -1.11276616874831
  H   3.51104355629320      1.77645695882154     -0.85195336682416
  N   1.37465633838324     -1.08861214444261      0.47779914870690
  N   3.50125229296219     -0.03294744804917      0.14526892993637
  C   2.70514951593137     -1.01509954498479      0.57873937290424
  H   3.19401357459239     -1.85118168027971      1.06879839002330
