20
Coordinates from ORCA-job mp2_opt
  C   -2.78604840459788     -1.21281992337315      0.14478370651092
  C   -1.39641254060994     -1.18732991543001      0.10617667152203
  C   -0.71511769536542      0.02676351186101     -0.04664380379437
  C   -1.45485793843871      1.21054799170293     -0.16234875624894
  C   -2.84537637642356      1.17930618802612     -0.12806439471103
  C   -3.51708510185272     -0.03115455859951      0.03078330630454
  H   -3.30157450725380     -2.15858889173068      0.26836108915193
  H   -0.81938839974994     -2.09944975712901      0.19478742985468
  H   -0.95389621479425      2.15989028692428     -0.31170153169548
  H   -3.40529549055096      2.10237328441447     -0.22731768788368
  H   -4.60048020873921     -0.05343745241262      0.06023476492457
  C   0.76216671502586      0.03405403366401     -0.05241598859974
  C   1.51467535120698      1.19479371026810      0.14045870696889
  C   2.89640643449553      1.07493396969252      0.15981961606372
  H   1.05098571859629      2.15960287914104      0.29620513509007
  H   3.52879052056858      1.94537223658556      0.30619960814932
  N   1.38203579469714     -1.15018524473395     -0.20171506068853
  N   3.52112214560060     -0.09957768691701      0.01582887740001
  C   2.71399046583837     -1.15147905253576     -0.15331128012170
  H   3.19708273234703     -2.11654960941835     -0.26950240819720
