20
Coordinates from ORCA-job opt
  C   -2.94492488838387      1.02319118731673     -1.06816186728987
  C   -1.55573225984649      0.97968361183942     -1.00466878341422
  C   -0.89361272425711      1.42985084181546      0.14110393050763
  C   -1.63343342151710      1.93994331653893      1.21234125103364
  C   -3.02406559585565      1.97019093281334      1.15014089631391
  C   -3.68146490787574      1.51685102352964      0.00806287615660
  H   -3.45433767905368      0.67627627588775     -1.96012744171326
  H   -0.97298823787437      0.59067229754827     -1.83238131749600
  H   -1.11801660662067      2.28648739398134      2.10261467988193
  H   -3.59395968738815      2.34843776103948      1.99130594808407
  H   -4.76390946621744      1.54578082246921     -0.04248315687350
  C   0.58009890462616      1.44911634152839      0.17199593482503
  C   1.28453856751455      2.61748788019304      0.46398832323328
  C   2.67029370037580      2.55682340852775      0.42416650146079
  H   0.76495192417288      3.53740229502900      0.70348341150584
  H   3.27745467894284      3.43042292190373      0.64146619640164
  N   1.22614628496013      0.32325751176481     -0.17539442645453
  N   3.32876361972871      1.43590588709333      0.10613289163744
  C   2.56065086355819      0.38088246067934     -0.18165855971980
  H   3.07854693101101     -0.53366517149898     -0.45292728808062
