20
Coordinates from ORCA-job opt
  C   -2.94338259521906      1.18377845333896     -1.11398744695671
  C   -1.55300993749442      1.14620116947784     -1.05627225312807
  C   -0.89468932043172      1.43111542444366      0.14251844886157
  C   -1.63720888910124      1.77639246136080      1.27464114601229
  C   -3.02861458671889      1.80471142002132      1.21611344616789
  C   -3.68290673441696      1.51170964197909      0.02131175073664
  H   -3.44993128987815      0.96113834222075     -2.04633797721115
  H   -0.97109983605721      0.88552710206405     -1.93395463411828
  H   -1.12259475194519      2.00527689632076      2.20242116391392
  H   -3.60085148063031      2.05817042532701      2.10139654070003
  H   -4.76556862198035      1.53781780898467     -0.02507601576033
  C   0.58301510806722      1.45079235420581      0.18305010235664
  C   1.28451124051932      2.65298220586170      0.26310866245796
  C   2.67109394690549      2.58723194683737      0.25192142967699
  H   0.76085038259210      3.59901600669958      0.33021964174218
  H   3.27747599367686      3.48600685734094      0.31162759612020
  N   1.22899437625753      0.27888304816902      0.06697540877885
  N   3.33041787524868      1.42659565745269      0.15812190059266
  C   2.56440016829259      0.33539623853273      0.06797432151469
  H   3.08409795231371     -0.61374246063875     -0.01677223245796
