20
Coordinates from ORCA-job opt
  C   -2.96871131002092      0.38551960676904      0.34410937113181
  C   -1.57713873941667      0.41552247659001      0.36000227938571
  C   -0.89570586008361      1.59943686569045      0.05838891205327
  C   -1.62089765304765      2.74493943132123     -0.28442790884835
  C   -3.01139228229719      2.71356571566692     -0.28775092685034
  C   -3.68860972127011      1.53562928821186      0.02649847281010
  H   -3.49078238757968     -0.53764790108266      0.56906060245118
  H   -1.01648279236436     -0.48622672361672      0.58445815720016
  H   -1.08274402225101      3.64974362633946     -0.54272363771748
  H   -3.56921767991178      3.60805887128593     -0.54112876432234
  H   -4.77235198272301      1.51252804503495      0.01687282428736
  C   0.57685410641938      1.63639296885389      0.05106434991904
  C   1.33216070831753      1.00341014331185      1.03946627629005
  C   2.71300901514580      1.11071808553559      0.95938458702765
  H   0.85696782770760      0.46062010444590      1.84739919833450
  H   3.35619884036067      0.64029583501619      1.69697034234922
  N   1.17505039902047      2.35360277841707     -0.91535709248294
  N   3.32306706144162      1.80170084698190     -0.01103807206119
  C   2.50941366342417      2.39127674552760     -0.89223234545978
  H   2.98631080912874      2.96591118969951     -1.68001662549762
