20
Coordinates from ORCA-job mp2_opt
  C   -2.84376601917926     -1.11024145560385      0.46296662870541
  C   -1.45221555421082     -1.14331689329519      0.49317668422362
  C   -0.71562603475241     -0.04047208627378      0.05403325949791
  C   -1.38177223620453      1.08389297260258     -0.44009534931896
  C   -2.77391724942752      1.11171423588711     -0.47527442551065
  C   -3.50639855720966      0.01692084453946     -0.02056432496318
  H   -3.41137423192850     -1.96572219678450      0.81099873633051
  H   -0.93047068325333     -2.02309680748610      0.85459715897023
  H   -0.80654422044292      1.93128863362930     -0.79893153374601
  H   -3.28614734474145      1.98526585364838     -0.86229903279362
  H   -4.58972410606596      0.04021789487925     -0.04657889809499
  C   0.76437211633281     -0.07023743915071      0.05984339697818
  C   1.49280888349783      0.66206272205078      0.99644038699893
  C   2.87498990133601      0.67428825362021      0.86755239732830
  H   0.99158864450078      1.20544070703211      1.78837736516459
  H   3.50096450107534      1.22580143070650      1.56252650206205
  N   1.38285863690456     -0.75339662946423     -0.91710254353309
  N   3.50517798134699      0.02388962804536     -0.11758041796550
  C   2.71596422314565     -0.65825169433284     -0.95291593560468
  H   3.21254334927641     -1.19912497424982     -1.75217805472905
