20
Coordinates from ORCA-job opt
  C   -3.00674912264241      2.75555394120541      0.01891810523134
  C   -1.62030179346216      2.78834947397292      0.13057752530224
  C   -0.89957352033489      1.59620003954470      0.24538260146143
  C   -1.57753457945368      0.37342892925075      0.22856242143983
  C   -2.96605721966534      0.34514289939736      0.12935162701707
  C   -3.68211668466716      1.53558294465900      0.01914525100583
  H   -3.56161499148678      3.68240182998656     -0.07344610055728
  H   -1.08511768982003      3.73149754101532      0.13933713913551
  H   -1.01675142902700     -0.55142716045356      0.32074473723565
  H   -3.48853818903757     -0.60478890167689      0.13655635559859
  H   -4.76271206054089      1.51315071856297     -0.06385265257727
  C   0.57341152587079      1.63546202877888      0.28912508205397
  C   1.34592243896857      0.90223784251628     -0.61209638955163
  C   2.72474530871946      1.03526008126464     -0.53004977595647
  H   0.88220300656164      0.26135640414874     -1.35223536857863
  H   3.38262266263710      0.49206041750993     -1.20174254388409
  N   1.14932987522086      2.46918179890280      1.17164833398901
  N   3.31425391521194      1.84106445785586      0.36121017115521
  C   2.48414623068301      2.51810947987681      1.16022548130737
  H   2.94543431626453      3.18517623368151      1.88163799917231
