20
Coordinates from ORCA-job opt
  C   -3.01671919807203      2.76231274784338      0.11637668431516
  C   -1.62932740705633      2.79536092485119      0.21032603033177
  C   -0.89908840531822      1.60273825875839      0.21340122488170
  C   -1.57264176070518      0.38049316423776      0.11701394506894
  C   -2.96187974819098      0.35163062135512      0.03528454256039
  C   -3.68621708858075      1.54219428408311      0.02869290724087
  H   -3.57777855524354      3.69001996254654      0.10811742623523
  H   -1.09774281479006      3.73701693378827      0.28720584711040
  H   -1.00990619004174     -0.54727192124925      0.13889339110259
  H   -3.47912126633015     -0.59951408195223     -0.02130964309449
  H   -4.76782468869375      1.51935166287885     -0.04004132994292
  C   0.57250013050385      1.64983896917156      0.25949060926097
  C   1.35880330434789      0.82300211786577     -0.54421945533775
  C   2.73631660718184      0.95935295480993     -0.45081668628432
  H   0.90970272783660      0.11227346614715     -1.22703231617136
  H   3.40270116527774      0.34526871984216     -1.04904450078197
  N   1.13943720905235      2.56679499131338      1.06221237934883
  N   3.31504071855396      1.85212539383169      0.36112731776920
  C   2.47368282283010      2.61205920085987      1.06878203841980
  H   2.92506243743841      3.34995262901737      1.72454058796697
