20
Coordinates from ORCA-job mp2_opt
  C   -2.85030182799968     -1.07191395746919     -0.53411282831006
  C   -1.45976382186819     -1.10578774264329     -0.58506658202010
  C   -0.71448335006489     -0.03522848570725     -0.08463026632721
  C   -1.37054800064416      1.05085982667123      0.50040442804606
  C   -2.76188460720728      1.07742471027095      0.55911212224417
  C   -3.50331919800573      0.01895281362904      0.03803043648824
  H   -3.42506956361629     -1.89974938167333     -0.93346921325801
  H   -0.94424535288010     -1.95958977621784     -1.01155932347842
  H   -0.78779553189596      1.86826391420050      0.91297588441473
  H   -3.26607726915514      1.91994991378128      1.01866113727771
  H   -4.58605323005190      0.04141148590814      0.08211084219473
  C   0.76367791213271     -0.07303316413775     -0.09654421832208
  C   1.49741789412463      0.83255853966668     -0.86237103022045
  C   2.87701030100568      0.83288416239541     -0.70979701818400
  H   1.00151259831648      1.51415751259225     -1.54296546242088
  H   3.50662043044913      1.51313895827316     -1.27541780174074
  N   1.37618407034788     -0.93074714716413      0.73574267649758
  N   3.49961718157670      0.01320266906378      0.14514951529968
  C   2.70690790806990     -0.82804488413593      0.81554279565345
  H   3.19817545736621     -1.50849996730373      1.50372990616559
