20
Coordinates from ORCA-job mp2_opt
  C   -2.81457803024665     -1.14288476049416      0.35740611989844
  C   -1.42276109264998     -1.15153968892868      0.35186926168054
  C   -0.71333627074472      0.00175257316112     -0.00053193770245
  C   -1.41345720968647      1.15981128764296     -0.35545103228204
  C   -2.80411828478456      1.15971856443422     -0.36209664069191
  C   -3.50851931859380      0.00970033316286     -0.00628595893380
  H   -3.35775037025472     -2.03478560265702      0.64847017908265
  H   -0.88531550749505     -2.04382927098338      0.65573983099959
  H   -0.85381989134607      2.04940787554485     -0.62055263213225
  H   -3.34133482752065      2.05741674990299     -0.64640548244647
  H   -4.59247629043711      0.01354842544944     -0.00672929518108
  C   0.75964033546545      0.00079296016105     -0.02846675218024
  C   1.48882136174150     -1.11972497141389     -0.43024119458947
  C   2.87239230022730     -1.04241827287264     -0.36668005653632
  H   0.99408520865827     -2.01136148905722     -0.79479522586797
  H   3.49445455933113     -1.87998196522624     -0.66726741290302
  N   1.38834871761013      1.11835997630283      0.37491132363257
  N   3.51081658388715      0.05318001477443      0.06145190188986
  C   2.72239471261825      1.07776403538136      0.40175694667424
  H   3.22264531422061      1.97969622571513      0.73995805758913
