18
Coordinates from ORCA-job mp2_opt
  O   -3.13207752477596     -0.62851458374172     -0.19667418353466
  C   -0.99920308922515     -0.00885992293264      0.01413508506795
  N   -3.15843739034720      0.69786759122544      0.18294068250342
  C   -1.85408786204639     -1.03398361765502     -0.29501004461626
  H   -1.71146502567938     -2.05562276886565     -0.60989392179927
  C   0.46220710032183     -0.00471165634794      0.01848162473382
  C   1.18189204646994     -1.19324166358741      0.19466686347645
  C   1.16739824502155      1.18974617727724     -0.17212697434685
  C   2.57273754696695     -1.18733406026791      0.17680296259316
  H   0.64862624013135     -2.12154898684573      0.37057709156853
  C   2.55891897898225      1.19567785337915     -0.18270128029717
  H   0.62390238740722      2.11450132751142     -0.33234457515567
  C   3.26617410936226      0.00735454325541     -0.01067139550005
  H   3.11597461332406     -2.11485173406841      0.31763997083841
  H   3.09100373157023      2.12820426987465     -0.33258705539503
  H   4.34993861595898      0.01225760423882     -0.02031772578812
  C   -1.89122383874559      1.05493388478067      0.29970343663672
  H   -1.66973588469696      2.06600874276962      0.60817443901462
