25
Coordinates from ORCA-job mp2_opt
  C   1.82651258727815      0.77693313588346      0.14096355875659
  C   2.97492254828724      1.57744933182033      0.28747993886737
  C   4.22630308095727      0.99725765619269      0.18091980230336
  C   4.36693893953831     -0.38063591787581     -0.06944226926036
  C   3.25543593639899     -1.19602029284563     -0.21367718007801
  H   2.87197884405853      2.64032415561808      0.48062570267289
  H   5.11359958970945      1.61029570753563      0.29152766407602
  H   5.35836936584087     -0.81152652616109     -0.15072376420028
  H   3.36406802832020     -2.25806073649601     -0.40443105588096
  C   -0.40059024267162      0.08114636498535      0.02451639384844
  C   -1.86141418890491      0.09428816887471      0.02378643922125
  C   -2.59784229037219     -1.02474990436407      0.43769125569145
  C   -2.55259558462636      1.23940618529839     -0.39816106578028
  C   -3.98864961950126     -0.99461910368664      0.43731638884807
  H   -2.07561183987682     -1.91118802503208      0.78273545247178
  C   -3.94283427064392      1.26791983186598     -0.39002935270721
  H   -1.99307002363325      2.09696565181203     -0.75579974288195
  C   -4.66703495973628      0.15157513170729      0.02676686242965
  H   -4.54394073929988     -1.86661750824431      0.76393096963438
  H   -4.46312665482173      2.15926730873736     -0.72225461475130
  H   -5.75065707606592      0.17363484353709      0.02747904099528
  C   0.45387239629326      1.14288453258924      0.20954939733352
  H   0.10485071530193      2.14677756599364      0.42186596028880
  C   1.98928741514030     -0.61089604852010     -0.10446926072068
  S   0.46206304302962     -1.40144850922555     -0.24816052117783
