25
Coordinates from ORCA-job mp2_opt
  C   1.83009320411729      0.78745860349147      0.08836056956917
  C   2.98115772565400      1.58966961120541      0.19342802852389
  C   4.23065033233771      0.99823035178482      0.13212826733468
  C   4.36619944718195     -0.39262671554761     -0.03374250190815
  C   3.25171927521671     -1.20919505419563     -0.14110123447226
  H   2.88233775358728      2.66276214569363      0.32092080313919
  H   5.12009558994161      1.61283987872536      0.21255117796873
  H   5.35588212967638     -0.83275749392004     -0.07853777176969
  H   3.35619616810760     -2.28116276050996     -0.26820819325421
  C   -0.39613319479773      0.09935760875840     -0.01142504599743
  C   -1.86750854756961      0.10188798694031      0.00222003108010
  C   -2.56212024656183     -0.16479141348582      1.18764883144796
  C   -2.58514396796994      0.38405795257895     -1.16541511055397
  C   -3.95419636859842     -0.14702781897394      1.20368706808277
  H   -2.00248311424272     -0.38289273202281      2.09106964500522
  C   -3.97743778381775      0.40284876219780     -1.14549965582317
  H   -2.04323169777512      0.58719834272518     -2.08296353777736
  C   -4.66410990729933      0.13686390848394      0.03800006949783
  H   -4.48502815070769     -0.35250444158965      2.12641386847140
  H   -4.52635001812532      0.62371045762818     -2.05397135757979
  H   -5.74789890006369      0.15075448496889      0.05200863709185
  C   0.45613550191724      1.16479832108066      0.12686532000025
  H   0.10157441685018      2.18104598762488      0.25435842226376
  C   1.98701151674486     -0.61277166194419     -0.07835633239044
  S   0.45475583619634     -1.40077731169825     -0.18466599795033
