25
Coordinates from ORCA-job mp2_opt
  C   1.83543862621539      0.76451397454393     -0.19607547310782
  C   2.99128690480131      1.53784429192416     -0.41083078904190
  C   4.23717807151543      0.95400124564429     -0.26549113508377
  C   4.36461921757661     -0.40147340257034      0.09139737690762
  C   3.24536314322212     -1.18938810770094      0.30791178131518
  H   2.89861751039579      2.58381169754893     -0.68440851860337
  H   5.13024967378454      1.54671790850248     -0.42827531628703
  H   5.35183517162958     -0.83622023612928      0.19933756393737
  H   3.34400036932476     -2.23395233966750      0.58217240232600
  C   -0.39508338601232      0.11162956718509      0.00753423797131
  C   -1.86458048756699      0.12167018589659     -0.02598901486355
  C   -2.58697446548759      0.76345736649755      0.98649117276678
  C   -2.55582480143407     -0.54301690599454     -1.04567597933134
  C   -3.97918289101001      0.76736863957418      0.96092397887642
  H   -2.04790171626061      1.25843029999235      1.78735864626245
  C   -3.94776729631043     -0.54162955157669     -1.06514778327592
  H   -1.99420871045960     -1.04882523951090     -1.82412363326893
  C   -4.66197764505279      0.11443523663657     -0.06369091965751
  H   -4.53096612319400      1.27149016835946      1.74634006529960
  H   -4.47537513811357     -1.05210248497349     -1.86294184209006
  H   -5.74572003566351      0.11472711029035     -0.08072901659769
  C   0.46405253346597      1.14069714217117     -0.28474480106786
  H   0.11484951249564      2.12994666800436     -0.55773282057972
  C   1.98412202146426     -0.60107559737160      0.15984983414208
  S   0.44750394067409     -1.35805763727619      0.37662498305169
