25
Coordinates from ORCA-job mp2_opt
  C   1.83167289285878      0.78816608263750     -0.00247741524314
  C   2.98309208269047      1.59655102664783     -0.00608402461006
  C   4.23230788873516      1.00127570576589     -0.00414129528056
  C   4.36674017581887     -0.39952442887058      0.00135269775756
  C   3.25168257743659     -1.22240746408178      0.00506847854736
  H   2.88491136082322      2.67725637913933     -0.01037440191091
  H   5.12215158359283      1.62055825736694     -0.00687102217677
  H   5.35616667996563     -0.84247210305770      0.00276245071991
  H   3.35585752348885     -2.30189333896567      0.00938452178988
  C   -0.39524228749057      0.09526576551696      0.00050315293406
  C   -1.86667912635668      0.10529031607286      0.00005028855394
  C   -2.57326094392426      0.11532918364558      1.20780315105566
  C   -2.57247884201427      0.10723133788066     -1.20820977076315
  C   -3.96556922240464      0.13461486721225      1.20552829933248
  H   -2.02288803790177      0.11048617116637      2.14261131710155
  C   -3.96477091655506      0.12651782029934     -1.20702679978852
  H   -2.02145965921256      0.09601939035673     -2.14258070866014
  C   -4.66364526265339      0.13994476002850     -0.00100763244553
  H   -4.50545005713601      0.14517035674671      2.14564490878304
  H   -4.50401390559957      0.13083214692364     -2.14755758052170
  H   -5.74749476047210      0.15430902456806     -0.00140850975322
  C   0.45826076563780      1.16867512310606     -0.00390630340036
  H   0.10506189578649      2.19330043009649     -0.00827061614408
  C   1.98708083006285     -0.62206624044367      0.00321289730646
  S   0.45369676482336     -1.41580956975830      0.00747091681625
