25
Coordinates from ORCA-job mp2_opt
  C   1.81643833051181      0.76188674701425     -0.20327393295010
  C   2.95554712546832      1.55066850088966     -0.45017993562026
  C   4.21320065871523      0.99026590761084     -0.31555828365920
  C   4.36949143551514     -0.35682148918590      0.06131691914634
  C   3.26743104103162     -1.16021328072580      0.30729359337141
  H   2.84070131020813      2.59024708328694     -0.73929585477354
  H   5.09331165455936      1.59505478829097     -0.50263330058077
  H   5.36560961274275     -0.77267755030229      0.16145909007793
  H   3.38820708912826     -2.19850909261217      0.59611841462043
  C   -0.39919449359225      0.07257590213131      0.04256742417726
  C   -1.86456356736122      0.06597280339859      0.01818027592111
  C   -2.56412045903341     -0.82792433448136     -0.80227366233517
  C   -2.57949004666073      1.00777264912285      0.76862108449451
  C   -3.95406127389094     -0.78780624763635     -0.85798839944167
  H   -2.01076329848632     -1.54375800318035     -1.40119001708787
  C   -3.96935912779367      1.04874558084147      0.70498387428470
  H   -2.03609851770110      1.69481967146773      1.40885176320667
  C   -4.66019316597604      0.15058539189316     -0.10669139957688
  H   -4.48641242914049     -1.48259282122547     -1.49782656260981
  H   -4.51374988627110      1.77836374515517      1.29396576894451
  H   -5.74256357659480      0.18137675351380     -0.15342874056050
  C   0.43852454848077      1.11311371071310     -0.27565043773908
  H   0.06812356782035      2.08938113319115     -0.56727898170786
  C   1.99433197048352     -0.59614041011547      0.16849073225053
  S   0.47499349783680     -1.37690413905583      0.42000256814731
