25
Coordinates from ORCA-job mp2_opt
  C   1.81740974871685      0.76118107928304     -0.20873997192111
  C   2.95720720918758      1.54811505087466     -0.45803036319748
  C   4.21443891200039      0.98818036583113     -0.31738691242220
  C   4.36958748378024     -0.35657376926209      0.06814679044677
  C   3.26678921418440     -1.15805361440108      0.31688464250872
  H   2.84329126450068      2.58595260549728     -0.75366251065623
  H   5.09510802210014      1.59157430258357     -0.50633340441426
  H   5.36537519391256     -0.77208228307513      0.17294232456392
  H   3.38664633088391     -2.19450737664347      0.61262845969057
  C   -0.39869448168798      0.07477483612587      0.03826726345696
  C   -1.86540369247705      0.06676245697007      0.01298586996526
  C   -2.56021167655714     -0.76018693236113     -0.87810591423531
  C   -2.58406029273074      0.94058267847254      0.83763605159446
  C   -3.95039978659406     -0.72212283949270     -0.93106380933311
  H   -2.00286835600548     -1.42377017581828     -1.53109563739492
  C   -3.97434876461383      0.97944796792016      0.77781776197038
  H   -2.04335237429722      1.57802618176825      1.52932248287513
  C   -4.66078218280745      0.14751117870516     -0.10485975006510
  H   -4.47957070480552     -1.36488214537732     -1.62559230184331
  H   -4.52212956104924      1.65641212970755      1.42378051709737
  H   -5.74329998980937      0.17675032437980     -0.14912473640526
  C   0.43946582633835      1.11271848369981     -0.28545966173704
  H   0.06959747173204      2.08813934904458     -0.58046422729115
  C   1.99409411062263     -0.59447505803368      0.17202398066977
  S   0.47383107547532     -1.37293179639859      0.42506405607716
