25
Coordinates from ORCA-job mp2_opt
  C   1.83345402709697      0.78642267992047      0.00002191037340
  C   2.98305839368877      1.59831324055068      0.00001631498709
  C   4.23319904726897      1.00536830830731     -0.00001160303183
  C   4.37014421636961     -0.39534762323972     -0.00000330559945
  C   3.25654766636660     -1.22099035823251     -0.00003740380031
  H   2.88255631486570      2.67887144218921      0.00003464310583
  H   5.12198774762635      1.62613007325692      0.00001862193639
  H   5.36046497487716     -0.83627980375690     -0.00004112818568
  H   3.36265381120839     -2.30026744992789     -0.00003851270889
  C   -0.40029261022859      0.08978071224163     -0.00000836589367
  C   -1.86189349999411      0.10372580983987     -0.00000008705350
  C   -2.60034974567973     -1.08877250798554     -0.00002590352384
  C   -2.56357669257621      1.31933622078807     -0.00004275568973
  C   -3.99109040929093     -1.06712458682735      0.00003175889938
  H   -2.08522943305905     -2.04372931713706      0.00004562241231
  C   -3.95302966032690      1.33828635747474     -0.00000944940074
  H   -2.02110198989793      2.25728566272377     -0.00006742873782
  C   -4.67597591816504      0.14592638609778     -0.00000244310374
  H   -4.54007077751276     -2.00199728734091      0.00001993957327
  H   -4.47387037737173      2.28922604200592     -0.00004262615527
  H   -5.75960799788658      0.16301333804816      0.00003148829294
  C   0.46306824264617      1.16226874168324      0.00001157149950
  H   0.13258088323704      2.19350399185859      0.00003791344448
  C   1.99228291395217     -0.62212811531919      0.00000396449768
  S   0.46354187278565     -1.42060895721931     -0.00005273613782
