25
Coordinates from ORCA-job mp2_opt
  C   1.82928551001959      0.78170537280877      0.09917901056250
  C   2.97855845527133      1.58719521845415      0.20625406909558
  C   4.22921895542322      1.00046549446576      0.13037010153819
  C   4.36801335622654     -0.38837894533822     -0.05060211821297
  C   3.25542790967593     -1.20829223694047     -0.15629344686424
  H   2.87701895152109      2.65850667997532      0.34640397663426
  H   5.11738678044165      1.61689284768134      0.21108891631254
  H   5.35888878509853     -0.82437607840561     -0.10814684407579
  H   3.36246847906055     -2.27874663524513     -0.29354982067378
  C   -0.40054627760666      0.08450502627902      0.02052461144512
  C   -1.86126980972942      0.09681365575251      0.00746498933002
  C   -2.55619108212050      1.28066462967817     -0.28222615065868
  C   -2.59923830171144     -1.05852241469708      0.30350299308541
  C   -3.94608183096133      1.30596976509797     -0.27331294056494
  H   -2.00286725152214      2.17607284395474     -0.54241500311268
  C   -3.98997053809633     -1.03129021204287      0.30459810614756
  H   -2.08005336353007     -1.97796486915861      0.55369758661000
  C   -4.67041595260566      0.15086803162262      0.01940753953824
  H   -4.46634477893600      2.22866652181859     -0.50476382989641
  H   -4.54315553700277     -1.93439444428535      0.53666203996947
  H   -5.75405444606946      0.17163897805311      0.02162903265969
  C   0.45758576917218      1.15231554338870      0.15009705459823
  H   0.11585365174453      2.16780452862291      0.31126545364270
  C   1.99030282052657     -0.61608643832430     -0.07909202770112
  S   0.46253474571005     -1.40999286321604     -0.18524129940889
