25
Coordinates from ORCA-job mp2_opt
  C   1.81642918525965      0.76190772272752      0.20330987439385
  C   2.95553139182524      1.55068802875145      0.45025250716613
  C   4.21319018223229      0.99030976176639      0.31558115103320
  C   4.36949709196090     -0.35675328202706     -0.06137614513553
  C   3.26744341127147     -1.16014523019707     -0.30738830047923
  H   2.84068553315281      2.59024912962071      0.73942821224420
  H   5.09329197487679      1.59510308683404      0.50268364185710
  H   5.36561971666310     -0.77258949695534     -0.16156094703316
  H   3.38822970447756     -2.19842366051475     -0.59627700398634
  C   -0.39919585882975      0.07258237790789     -0.04255449674900
  C   -1.86456332943503      0.06597113482686     -0.01816475284238
  C   -2.56411939767965     -0.82797427231594      0.80223751843662
  C   -2.57948801068874      1.00782731074144     -0.76853618798312
  C   -3.95406334954072     -0.78785113312216      0.85795955620826
  H   -2.01076395657851     -1.54384648065724      1.40110549755114
  C   -3.96936072494223      1.04880744953679     -0.70487962193381
  H   -2.03609969050246      1.69491781480058     -1.40872235700596
  C   -4.66020144700899      0.15058965946061      0.10672820505340
  H   -4.48641453132941     -1.48267923074365      1.49775256354654
  H   -4.51374420502690      1.77847452171194     -1.29381074250078
  H   -5.74257238886019      0.18137838947677      0.15347363017990
  C   0.43851328649128      1.11311173363628      0.27571925598406
  H   0.06810414512102      2.08935887721027      0.56740255466002
  C   1.99433589549905     -0.59609690543959     -0.16853369735660
  S   0.47500437159141     -1.37686330703672     -0.42007591530852
