25
Coordinates from ORCA-job mp2_opt
  C   1.83629885543663      0.77539942730665      0.15611339428418
  C   2.99313669382480      1.55642005490270      0.33406391560369
  C   4.23824675238729      0.96357911089384      0.22145696818597
  C   4.36380650334830     -0.40814205122032     -0.06731619334865
  C   3.24347517554657     -1.20369745254183     -0.24740615982459
  H   2.90195633138826      2.61476455483492      0.55557284256595
  H   5.13205402546870      1.56191666843919      0.35725800209988
  H   5.35030176887661     -0.84986091486988     -0.15049157249662
  H   3.34062038870565     -2.26083733639455     -0.46896257245398
  C   -0.39508023608494      0.11680800033233     -0.01405305701762
  C   -1.86561997714343      0.12614313304369      0.01466330890166
  C   -2.59046687268200      0.61667017744503     -1.07724414522560
  C   -2.55357473719962     -0.38757641941706      1.12011250208390
  C   -3.98273657708125      0.61811490060450     -1.05138013623136
  H   -2.05366218465746      0.99750970618699     -1.93960824880521
  C   -3.94555181703697     -0.38843538172408      1.14091002775331
  H   -1.98908989068075     -0.77695616105964      1.96083419588037
  C   -4.66245442624303      0.11539288634659      0.05665237828755
  H   -4.53698339013995      1.00468492565153     -1.89914511578447
  H   -4.47101350336454     -0.78223777697023      2.00356354314429
  H   -5.74621478156780      0.11439933105443      0.07458579484989
  C   0.46532287004558      1.15807141854280      0.22486747128571
  H   0.11830384939165      2.16098028180991      0.44538360442880
  C   1.98307364043274     -0.60614179477323     -0.13210868777443
  S   0.44530353902895     -1.37019928842426     -0.31111006039263
