25
Coordinates from ORCA-job mp2_opt
  C   1.83545122933270      0.76445899268119      0.19622868202662
  C   2.99130000899050      1.53772612907464      0.41118863823257
  C   4.23719221161765      0.95391581618234      0.26570287038729
  C   4.36463044032841     -0.40146541867299     -0.09153388615757
  C   3.24536713344495     -1.18931901214808     -0.30824923920929
  H   2.89864207712691      2.58362379690004      0.68503632072723
  H   5.13025801370310      1.54659746629701      0.42864143565550
  H   5.35184259216263     -0.83619059231731     -0.19959274770236
  H   3.34399543562969     -2.23381209241768     -0.58278258447877
  C   -0.39507426531227      0.11163654155055     -0.00756130702393
  C   -1.86457157525075      0.12168952938128      0.02594856074154
  C   -2.58694678142005      0.76373448786618     -0.98638589053953
  C   -2.55583511320794     -0.54320876971121      1.04548261116661
  C   -3.97915349718097      0.76767834243644     -0.96082346053439
  H   -2.04783989540957      1.25886368562477     -1.78713362627790
  C   -3.94778610245759     -0.54176212790426      1.06496704913647
  H   -1.99424462292696     -1.04921616153595      1.82381911256747
  C   -4.66197266948383      0.11454630205808      0.06365068385160
  H   -4.53093558034632      1.27198083943408     -1.74612353896703
  H   -4.47539994375284     -1.05239166092077      1.86265620072715
  H   -5.74571446743564      0.11488362828403      0.08067509958281
  C   0.46406065928365      1.14062544937637      0.28497665074467
  H   0.11484745186956      2.12980579038393      0.55820543606480
  C   1.98412887614238     -0.60103875877055     -0.16003871186059
  S   0.44750838455260     -1.35797420313216     -0.37700935886098
