25
Coordinates from ORCA-job mp2_opt
  C   1.82511703979656      0.77540579990879     -0.14951574860630
  C   2.97117526297727      1.57154119096951     -0.33048594214118
  C   4.22413392136554      0.99331471552827     -0.22978320885765
  C   4.36843243070245     -0.37845686326104      0.04975923798498
  C   3.25917241080002     -1.18868464462352      0.23268602362143
  H   2.86561761281865      2.63002854203477     -0.54494979744948
  H   5.10966877741204      1.60335461112613     -0.36782974679627
  H   5.36084056854213     -0.80847637667598      0.12350129023020
  H   3.37057424883367     -2.24590460137918      0.44718267832764
  C   -0.39678979750174      0.08849489781004      0.03117385640078
  C   -1.86750214635862      0.08380902163443      0.00600578688174
  C   -2.55279027409858     -0.40108130731618     -1.11404654516499
  C   -2.59410250986176      0.60312725113047      1.08328542362549
  C   -3.94413950957534     -0.37379076772092     -1.15056516096679
  H   -1.98659420487797     -0.79549005353382     -1.95130832322772
  C   -3.98571730527329      0.63267834969758      1.04166511952442
  H   -2.05927222168309      0.97870770065110      1.94918583563821
  C   -4.66292075178567      0.14346463374181     -0.07389482334453
  H   -4.46750998958010     -0.75037936678345     -2.02215429027047
  H   -4.54144616951161      1.03625299316913      1.88052152257446
  H   -5.74619424413676      0.16570335959305     -0.10464857090029
  C   0.44915937732884      1.14169033671837     -0.20726902972603
  H   0.08785140114721      2.14112617426521     -0.42056130542612
  C   1.99082416706592     -0.60596763117655      0.12947160747202
  S   0.46369490545420     -1.38957896550801      0.31456511059643
