25
Coordinates from ORCA-job mp2_opt
  C   1.82539018666665      0.76913002804576      0.17202166518840
  C   2.97321818668476      1.56212105579827      0.35849148347759
  C   4.22506864993852      0.98739230595716      0.23060006803121
  C   4.36691549781681     -0.37801260321922     -0.08039313603220
  C   3.25611142127853     -1.18613830016829     -0.26459005563771
  H   2.86934331045477      2.61547171193590      0.59771704873058
  H   5.11181842643682      1.59498146391495      0.37159075639408
  H   5.35872558623499     -0.80474588716777     -0.17744937246916
  H   3.36580444544520     -2.23858238097186     -0.50211266931767
  C   -0.39961041544248      0.07984713431477      0.01015815165603
  C   -1.86127179453951      0.09239132556832      0.02373433479143
  C   -2.55441109067280      1.18367988660141     -0.51835996113252
  C   -2.59114485782752     -0.97654311940685      0.56130229664625
  C   -3.94501404452688      1.21373461024698     -0.50197687169439
  H   -1.99405970073023      1.99599959576295     -0.96901008007972
  C   -3.98213175623177     -0.94535613690875      0.56913214156514
  H   -2.06252047952593     -1.81985217897676      0.99352864159393
  C   -4.66390191026454      0.14959393643057      0.04076376419443
  H   -4.46919566667196      2.06257544338177     -0.92657318848377
  H   -4.53514134913744     -1.77560256163873      0.99376246023517
  H   -5.74750358714263      0.17163846590126      0.04803265769810
  C   0.45194114621361      1.13191280632619      0.25050608443310
  H   0.09686037061444      2.12432038349660      0.50396785914203
  C   1.98921008398128     -0.60705718845205     -0.13293401686215
  S   0.46220234094732     -1.39078179677257     -0.31709006206817
