25
Coordinates from ORCA-job mp2_opt
  C   1.82419099382730      0.77421021345009      0.15563799863505
  C   2.97085852627992      1.57298759711812      0.32373463196289
  C   4.22352037128697      0.99696110332257      0.21026739024001
  C   4.36728260563903     -0.37525426807811     -0.06805888565602
  C   3.25761717967275     -1.18898436635993     -0.23383017112374
  H   2.86551258570381      2.63153852448100      0.53812046214614
  H   5.10941840523162      1.60886428708264      0.33721043100186
  H   5.35968934383552     -0.80295096197180     -0.15414386997343
  H   3.36869932000723     -2.24665813319876     -0.44618389826661
  C   -0.40058252794764      0.07820092142541      0.01213332757116
  C   -1.86174332787458      0.08927271977685      0.01557663162830
  C   -2.59470717007558     -1.00454078403264      0.49682044838618
  C   -2.55388045056462      1.21301945362985     -0.45807082507884
  C   -3.98550954598437     -0.97156558506590      0.50692925127525
  H   -2.06901333222137     -1.87158265368803      0.88330592003268
  C   -3.94415727786004      1.24469526401149     -0.43908496385582
  H   -1.99413628202846      2.04935844128360     -0.86292239171971
  C   -4.66554965610758      0.15287833568975      0.04225401714263
  H   -4.53957825995778     -1.82314014425943      0.88540839078991
  H   -4.46651848759656      2.11837526720008     -0.81243305712982
  H   -5.74909560819733      0.17689927500202      0.05155740633144
  C   0.45051052830681      1.13689327784505      0.22555025467104
  H   0.09656870082253      2.13492138306433      0.45709468635083
  C   1.99002527984938     -0.60825939074968     -0.11743989272369
  S   0.46436308595305     -1.39781677697858     -0.28441429263768
