25
Coordinates from ORCA-job mp2_opt
  C   1.82858529832333      0.77983754434047      0.12349975112329
  C   2.97835703870077      1.58216358597342      0.24766348368657
  C   4.22868496169226      0.99790482031993      0.15102783719076
  C   4.36678628353516     -0.38562719828272     -0.06752311528247
  C   3.25380851712547     -1.20265825910455     -0.18980058904315
  H   2.87734189827202      2.64934213916367      0.41661995692329
  H   5.11712930286895      1.61208389518056      0.24477558568141
  H   5.35740768218202     -0.81969676706998     -0.14142996891804
  H   3.36044092948482     -2.26902400137884     -0.35601979822272
  C   -0.40058965485048      0.08443409203296      0.03302895322444
  C   -1.86124984353928      0.09858059726406      0.02944696918309
  C   -2.59944686337974     -1.04233940235104      0.37554467740931
  C   -2.55330880204661      1.26253334742749     -0.33664714982214
  C   -3.99020507802085     -1.01513853362209      0.36722420424384
  H   -2.07961630847321     -1.94621283718269      0.67615451038978
  C   -3.94342767758448      1.28788228585211     -0.33697060446314
  H   -1.99578810498606      2.14009818573626     -0.64497670906358
  C   -4.66873650664166      0.14984558247702      0.01421468328588
  H   -4.54520846690377     -1.90514154198346      0.64161308947050
  H   -4.46287419008217      2.19497419294357     -0.62498904641275
  H   -5.75237191726809      0.16994364191403      0.00838501164903
  C   0.45686581841077      1.14891882515194      0.18857634586933
  H   0.11261071948346      2.15879230117297      0.37837484218490
  C   1.98887135400904     -0.61319365984624     -0.09089690763712
  S   0.46046260968833     -1.40465283612884     -0.21135301265031
