25
Coordinates from ORCA-job mp2_opt
  C   1.83014214047566      0.78736657154089     -0.08818826898436
  C   2.98123136567626      1.58954923376041     -0.19319576989109
  C   4.23070742688491      0.99806248491343     -0.13200216009364
  C   4.36621963657593     -0.39281666419731      0.03370624346730
  C   3.25171422522329     -1.20935840373154      0.14100324167481
  H   2.88245814924697      2.66266055249978     -0.32056642329043
  H   5.12016322097022      1.61266210174454     -0.21238197484330
  H   5.35588816725671     -0.83298710678833      0.07842116828224
  H   3.35614826189088     -2.28134515547351      0.26798517618135
  C   -0.39610270205970      0.09932230341851      0.01157535411950
  C   -1.86747849760882      0.10188595731922     -0.00203311430107
  C   -2.56212556411634     -0.16464477576031     -1.18747443905906
  C   -2.58507282817707      0.38393274463328      1.16565810291492
  C   -3.95420333561186     -0.14686082790869     -1.20346248170694
  H   -2.00251419866377     -0.38264879744359     -2.09093423182730
  C   -3.97736853900394      0.40274251863469      1.14578734684177
  H   -2.04312891686901      0.58695951556842      2.08321253896598
  C   -4.66408280807943      0.13690512690093     -0.03772229427017
  H   -4.48506936976760     -0.35222254494203     -2.12619545215420
  H   -4.52623996154788      0.62350722380277      2.05430734129532
  H   -5.74787123925279      0.15080615437098     -0.05171348417866
  C   0.45619524134220      1.16475042301687     -0.12661569573776
  H   0.10165550852445      2.18102106732889     -0.25398203112760
  C   1.98702280325336     -0.61288872629739      0.07836328421823
  S   0.45474481343736     -1.40086097691093      0.18462502350417
