25
Coordinates from ORCA-job mp2_opt
  C   1.82514486281224      0.77530795384566      0.14955014678795
  C   2.97121226847646      1.57142410750421      0.33057771703815
  C   4.22416731381464      0.99321481807521      0.22977813386605
  C   4.36847249602886     -0.37852540412639     -0.04992660494012
  C   3.25921111532765     -1.18873430155357     -0.23291661717615
  H   2.86568287099268      2.62989120412960      0.54516711828912
  H   5.10970044904922      1.60325252674209      0.36786940560077
  H   5.36088494946688     -0.80852725983040     -0.12374476280592
  H   3.37059906778954     -2.24593278949079     -0.44753746968877
  C   -0.39676089779499      0.08838868372363     -0.03115426166714
  C   -1.86747735114661      0.08371809293973     -0.00591846015280
  C   -2.55271577888218     -0.40130450760290      1.11410937132208
  C   -2.59412288286654      0.60321763764684     -1.08308036194912
  C   -3.94406014339179     -0.37396169690991      1.15072106318125
  H   -1.98646806633761     -0.79585087148485      1.95127433422610
  C   -3.98573614050162      0.63281945826892     -1.04136486527434
  H   -2.05933208399520      0.97890405718791     -1.94896194063142
  C   -4.66288883794995      0.14347345841585      0.07416742579345
  H   -4.46740195695639     -0.75064695942253      2.02228865376567
  H   -4.54149593416028      1.03654022157414     -1.88013395832748
  H   -5.74616152492369      0.16575120366676      0.10500656889084
  C   0.44918600227924      1.14156981756375      0.20738416017427
  H   0.08784398666531      2.14096903038856      0.42080044660904
  C   1.99085928851979     -0.60603629843508     -0.12960125118477
  S   0.46373292768435     -1.38963318281645     -0.31473799174671
