25
Coordinates from ORCA-job mp2_opt
  C   1.83551088096375      0.78653361079507     -0.09106572683211
  C   2.99158008123031      1.58114066950188     -0.19891613810632
  C   4.23736126269203      0.98226027193646     -0.13432360732835
  C   4.36417748036076     -0.40868161989876      0.03770524926027
  C   3.24457220838281     -1.21786160809056      0.14791847406384
  H   2.89945897819138      2.65424681915180     -0.33119617876071
  H   5.13064918993786      1.59096968421962     -0.21701204190509
  H   5.35108388275598     -0.85475462797271      0.08496441213440
  H   3.34238621508874     -2.28989580894892      0.27966036445698
  C   -0.39508426293367      0.11261947389351      0.00952472078403
  C   -1.86640373199257      0.12175001937867     -0.00612934719568
  C   -2.58461744902394      0.39923424929126      1.16230177397331
  C   -2.56073397505712     -0.16752624129544     -1.18643578158452
  C   -3.97704358969190      0.40466922749937      1.14492604265396
  H   -2.04299142945934      0.61165776212080      2.07791900429505
  C   -3.95293017230722     -0.16324340608351     -1.19992772837525
  H   -2.00074807554569     -0.39003191453879     -2.08856995138525
  C   -4.66336328710070      0.12320689822339     -0.03519006299129
  H   -4.52637732999945      0.62440739496120      2.05340613571773
  H   -4.48348990475017     -0.38377939132636     -2.11932934836159
  H   -5.74725965529579      0.12592460264226     -0.04705414556991
  C   0.46390001663024      1.17211650431167     -0.13239263374794
  H   0.11586887062419      2.19000616977994     -0.26470725454673
  C   1.98362152239716     -0.61391196061835      0.08172706723768
  S   0.44639027390232     -1.39204177893352      0.19003170211350
