25
Coordinates from ORCA-job mp2_opt
  C   1.83073148003235      0.78405024638605     -0.07703357009191
  C   2.98042452841726      1.59150586924575     -0.16152044991125
  C   4.23064250111599      1.00188407320507     -0.10187659099287
  C   4.36826000661224     -0.39148126243373      0.04065268093748
  C   3.25505092795492     -1.21313567733890      0.12411234397362
  H   2.87966297312923      2.66632314039019     -0.27211948407932
  H   5.11921856305560      1.61967956839747     -0.16539457672956
  H   5.35872966247751     -0.82978543977159      0.08581221299570
  H   3.36130738051130     -2.28699855730875      0.23200377114865
  C   -0.40059308450074      0.08716492874052     -0.01920536871889
  C   -1.86141110691487      0.09935876824411     -0.00316394773802
  C   -2.55867448401901      1.29652681968611      0.21961173462613
  C   -2.59930423893636     -1.07083211130753     -0.23472591447678
  C   -3.94845298340917      1.31928814443261      0.21195552018395
  H   -2.00906727909032      2.20772488009979      0.42646023410344
  C   -3.99004581593717     -1.04596904656828     -0.23518517787270
  H   -2.08128310704470     -2.00335609531636     -0.43335175641427
  C   -4.67204259348227      0.14895513150680     -0.01492329951137
  H   -4.46921532283510      2.25322430065279      0.39122241179493
  H   -4.54170036767850     -1.96159860541610     -0.41607245055776
  H   -5.75569404561640      0.16828544976753     -0.01691249602594
  C   0.45962463055453      1.15694816776349     -0.11842532763550
  H   0.12226994422926      2.17801794382671     -0.24945186223383
  C   1.99055481163550     -0.61780568467607      0.06380537885461
  S   0.46237501973890     -1.41283495220769      0.14895398437145
