25
Coordinates from ORCA-job mp2_opt
  C   1.82548374368597      0.76900335975423     -0.17198003628898
  C   2.97332667007618      1.56198841587754     -0.35838842258430
  C   4.22516678705914      0.98724029925454     -0.23048046762903
  C   4.36699016559738     -0.37817806106588      0.08046381128888
  C   3.25617250038183     -1.18629885208689      0.26459855839074
  H   2.86948444461627      2.61535044373884     -0.59758079695191
  H   5.11192429857179      1.59483116913537     -0.37142050964857
  H   5.35879178223953     -0.80493036426369      0.17753279390837
  H   3.36584760757640     -2.23875378771573      0.50208429794426
  C   -0.39953038665541      0.07974433325976     -0.01021909457101
  C   -1.86119533611110      0.09227863656080     -0.02384297599657
  C   -2.55435546634897      1.18354535336323      0.51827201157347
  C   -2.59104337786231     -0.97663897388246     -0.56148273184929
  C   -3.94495857370360      1.21359243838885      0.50184357201194
  H   -1.99401586662765      1.99584792115100      0.96896893463769
  C   -3.98202842856780     -0.94545938413916     -0.56935372070038
  H   -2.06238891420597     -1.81992099629050     -0.99372627759297
  C   -4.66381929938855      0.14946793113408     -0.04096281471157
  H   -4.46916222344448      2.06241437824058      0.92645203304804
  H   -4.53502874778916     -1.77568772312433     -0.99403305528965
  H   -5.74742167284896      0.17150820754609     -0.04826536906150
  C   0.45204226684611      1.13180930311696     -0.25049744823623
  H   0.09701640967130      2.12423968752246     -0.50394939599148
  C   1.98927945626147     -0.60719819423466      0.13293203729730
  S   0.46225816097058     -1.39089754124104      0.31701706700275
