25
Coordinates from ORCA-job mp2_opt
  C   1.83084138180289      0.75956250293549     -0.21488451517302
  C   2.98345738753234      1.53155878053884     -0.45181053237256
  C   4.23174452339462      0.95681278712902     -0.29244986657088
  C   4.36518005921952     -0.38833072175339      0.09990515322379
  C   3.24943370309570     -1.17542434260645      0.33657905887786
  H   2.88619911538091      2.56958837127881     -0.75265420278733
  H   5.12222462161746      1.54863596452801     -0.47177223441688
  H   5.35430992337327     -0.81559154826063      0.21956965471685
  H   3.35259171121421     -2.21221669275228      0.63737102815953
  C   -0.39679872863862      0.10042614147168      0.00495591330473
  C   -1.86219194077661      0.10954635691459     -0.03175450542385
  C   -2.57536451378653      1.01736963579625      0.76109706321085
  C   -2.56607024212377     -0.80801993123440     -0.82165656701023
  C   -3.96701903463160      1.03031297610565      0.73616535907688
  H   -2.02854392629432      1.70566299642289      1.39704837681246
  C   -3.95763139351590     -0.79593609981694     -0.83885225330611
  H   -2.01527790907358     -1.51515117533036     -1.43313001148583
  C   -4.66162072161236      0.12368116175759     -0.06280758616354
  H   -4.50971407721835      1.73902443561514      1.35166142841886
  H   -4.49344253034999     -1.50365938183051     -1.46139848189792
  H   -5.74530270353809      0.13113762367721     -0.07802662048327
  C   0.45852775770102      1.12709438875884     -0.31114616014226
  H   0.10495561174311      2.10565030385789     -0.61573571839379
  C   1.98583656418836     -0.59685793768739      0.17262614619480
  S   0.45334936129629     -1.35640359551554      0.40802807363085
