25
Coordinates from ORCA-job mp2_opt
  C   1.83295389465494      0.78620386975773     -0.03027575942242
  C   2.98271551451787      1.59717038316423     -0.06423397306683
  C   4.23269298976950      1.00465450943724     -0.03901881877847
  C   4.36958760907227     -0.39471923626624      0.01978629689075
  C   3.25606026345272     -1.21960573477481      0.05282834812350
  H   2.88222040448597      2.67675029860051     -0.10996436412801
  H   5.12156306757056      1.62477851043500     -0.06461614405040
  H   5.35987711713783     -0.83530567191183      0.03968896142545
  H   3.36195819716558     -2.29798622905258      0.09720550406378
  C   -0.40038723176140      0.08942149191290     -0.01296474438761
  C   -1.86176546462611      0.10285614287723      0.00174230983105
  C   -2.56257803293949      1.31608757276064      0.08469622293263
  C   -2.60013610642754     -1.08628865560063     -0.08944267566814
  C   -3.95206311411291      1.33560411593597      0.08278471071894
  H   -2.01872711159103      2.24961734616645      0.16843012833072
  C   -3.99089033087645     -1.06414067419155     -0.08799290229327
  H   -2.08457439383515     -2.03768859949115     -0.16903644170626
  C   -4.67509570970041      0.14646819918464     -0.00396138878891
  H   -4.47293578935350      2.28413063173380      0.15079899849125
  H   -4.54045168039476     -1.99610993522638     -0.15746870711208
  H   -5.75874972886275      0.16387399522936     -0.00402001937481
  C   0.46251993931279      1.16168672064898     -0.04807291353250
  H   0.13094845881441      2.19114633818970     -0.10408843336796
  C   1.99183332790748     -0.62124618731669      0.02689270165552
  S   0.46320891061957     -1.41893320220254      0.06054910321408
