25
Coordinates from ORCA-job mp2_opt
  C   1.83181231777268      0.78470965531064      0.08145059133629
  C   2.98280963527631      1.59106815376909      0.15788269995654
  C   4.23201877136373      1.00023677085942      0.08990230937495
  C   4.36730504450021     -0.39330064125131     -0.05335205893209
  C   3.25273888565775     -1.21389707799086     -0.12914528415300
  H   2.88387231073246      2.66600912785821      0.26892493799128
  H   5.12164827100019      1.61711049361976      0.14733989588222
  H   5.35701452145497     -0.83258683229588     -0.10522692071063
  H   3.35726139384936     -2.28787077898627     -0.23763686212610
  C   -0.40054203870857      0.08998893325466      0.03759973328934
  C   -1.86141498561384      0.10408857655913      0.03145018116100
  C   -2.59980361042389     -1.06999107167150      0.24059283328929
  C   -2.55803882306822      1.29824903442718     -0.20895512050712
  C   -3.99049428611952     -1.04766432115453      0.22382571850359
  H   -2.08261847029905     -2.00257981344321      0.44115044607511
  C   -3.94786213231186      1.31844901395813     -0.21859360838178
  H   -2.00758954583276      2.21012275344707     -0.41047688290950
  C   -4.67199205357068      0.14632000103487     -0.00297278690951
  H   -4.54254396546003     -1.96555421896277      0.39153520155958
  H   -4.46802981999666      2.25084896862461     -0.40734336179215
  H   -5.75560350008339      0.16340136132393     -0.01546968683276
  C   0.46135263904011      1.15886368961987      0.13191960066092
  H   0.12576164177461      2.18029230291819      0.26487187794958
  C   1.98928636282691     -0.61734827709009     -0.06001470681452
  S   0.45977243623920     -1.41098580373831     -0.13462374696051
