25
Coordinates from ORCA-job mp2_opt
  C   1.83410508451183      0.75884111771200      0.21575154974364
  C   2.98886120867365      1.52796563320048      0.45082220538530
  C   4.23556461694288      0.95042343368316      0.28861431584939
  C   4.36506131770576     -0.39461819100902     -0.10522792517564
  C   3.24699306937111     -1.17866486239887     -0.34091991391853
  H   2.89463986228476      2.56595592090942      0.75273856814168
  H   5.12776756878723      1.54001400677696      0.46674923571831
  H   5.35293614330206     -0.82422211625961     -0.22689008852955
  H   3.34713721884434     -2.21527644198413     -0.64334414788498
  C   -0.39533746770521      0.10657705594587     -0.00173252444263
  C   -1.86357736253364      0.11591857186250      0.03191821510019
  C   -2.58219623480541      0.86723115614524     -0.90547297158716
  C   -2.55960154106291     -0.65344496073435      0.97192198652710
  C   -3.97428340517800      0.87344214613077     -0.88196354850538
  H   -2.03988874299230      1.44293080702500     -1.64813769874475
  C   -3.95143454465903     -0.64801262090498      0.98967266852981
  H   -2.00203483796101     -1.24257108186713      1.69260374318011
  C   -4.66168466249261      0.11598479779283      0.06476896433482
  H   -4.52249103318381      1.46153123985504     -1.60941632470800
  H   -4.48223187756865     -1.23987371041420      1.72685736754944
  H   -5.74541160787138      0.11852581458868      0.08006688005591
  C   0.46232405052592      1.13020025818811      0.31439287967357
  H   0.11140508757801      2.11095287450068      0.61466429985591
  C   1.98496038124732     -0.59711247258272     -0.17464394599216
  S   0.44975070823908     -1.35192137616174     -0.40797579015640
