25
Coordinates from ORCA-job mp2_opt
  C   1.81849312001483      0.76616469245477      0.19146721140100
  C   2.96006666003406      1.55797335502249      0.41687145044155
  C   4.21619959749398      0.99323088625864      0.28642864409911
  C   4.36860048670249     -0.36107307582654     -0.06542133829949
  C   3.26411316746568     -1.16797698055125     -0.28826823847634
  H   2.84818846161296      2.60295284049095      0.68711748139753
  H   5.09812945090190      1.60015778604195      0.45731663500239
  H   5.36360782428256     -0.77994445259047     -0.16397874689571
  H   3.38188074429380     -2.21189393497505     -0.55741924005123
  C   -0.39995130678262      0.07307834759122     -0.02210563873378
  C   -1.86323976343376      0.07437348093433     -0.00618836145776
  C   -2.57851255139819     -0.91716070719548      0.67810444327619
  C   -2.56610342525228      1.10674015303354     -0.64133960373303
  C   -3.96893963787080     -0.87855250233527      0.71810196366621
  H   -2.03774601075958     -1.70634693561699      1.19004853796800
  C   -3.95630244859750      1.14464303634051     -0.59354749796638
  H   -2.01327350012094      1.86498738403600     -1.18600403228448
  C   -4.66189131684524      0.15187484321551      0.08456344073789
  H   -4.51238530912021     -1.64923173516211      1.25309536158297
  H   -4.49004589194717      1.94522031270757     -1.09332809596463
  H   -5.74484281266375      0.18017446428754      0.11791799657318
  C   0.44194698659426      1.12059089181871      0.26367075417828
  H   0.07611774671293      2.10295689384247      0.54020248382636
  C   1.99268653887550     -0.59950856676447     -0.15303684045414
  S   0.47141318980707     -1.38411647705857     -0.37864376983368
