25
Coordinates from ORCA-job mp2_opt
  C   1.81698534074449      0.76371433734576     -0.19871371710404
  C   2.95690388282129      1.55406724107596     -0.43696694894973
  C   4.21408581314424      0.99225059793434     -0.30399534913826
  C   4.36914303011305     -0.35775639991055      0.06285043544959
  C   3.26629398372688     -1.16298429453641      0.29927726076651
  H   2.84298156482907      2.59582255208972     -0.71853768356734
  H   5.09478007008395      1.59817109440363     -0.48454727269311
  H   5.36492842280241     -0.77450297658381      0.16257087474869
  H   3.38613384507272     -2.20356117964241      0.58018277808051
  C   -0.39964313431777      0.07200127369942      0.03372131685299
  C   -1.86392051636737      0.06919346686105      0.01347132827598
  C   -2.57157004661352     -0.87753174462361     -0.73839961577315
  C   -2.57240824024607      1.06108786743281      0.70379606622722
  C   -3.96172575843109     -0.83751470549891     -0.78760623583886
  H   -2.02461809349539     -1.63345617633274     -1.29223364506908
  C   -3.96239184970918      1.10124375998891      0.64654956162255
  H   -2.02395533073661      1.78664215847329      1.29540969680025
  C   -4.66087013263079      0.15172163150720     -0.09750782694748
  H   -4.49986668995090     -1.57336537761527     -1.37448849353330
  H   -4.50125808379032      1.86997105858919      1.18901936617876
  H   -5.74349358693648      0.18179609581273     -0.13871690011114
  C   0.43958375667970      1.11589109891249     -0.27080604518459
  H   0.07075749143090      2.09450261935208     -0.55654503175983
  C   1.99372654434588     -0.59752068475826      0.16173132472854
  S   0.47380971743088     -1.38048531397659      0.40249475593831
