25
Coordinates from ORCA-job mp2_opt
  C   1.81693683026015      0.76381362683555      0.19871696756969
  C   2.95683302929327      1.55419350464328      0.43698326276427
  C   4.21403133310834      0.99240335072255      0.30404895496979
  C   4.36912756947887     -0.35760322398989     -0.06278024198532
  C   3.26630109684727     -1.16285840569602     -0.29922190026630
  H   2.84288346728253      2.59594914207423      0.71854097976374
  H   5.09470713719413      1.59834533604728      0.48461637556477
  H   5.36492477389719     -0.77432808914612     -0.16247027346840
  H   3.38616652168082     -2.20343582901044     -0.58011364791836
  C   -0.39966983645148      0.07204280748967     -0.03375533661453
  C   -1.86394610264878      0.06921486378140     -0.01350533732020
  C   -2.57158175785679     -0.87752646941626      0.73835947890626
  C   -2.57245058848726      1.06111248257235     -0.70380793154931
  C   -3.96173829570784     -0.83752043168897      0.78758276372045
  H   -2.02462245578425     -1.63345852087147      1.29217546487533
  C   -3.96243505459243      1.10126144644561     -0.64653873011228
  H   -2.02401645338611      1.78668218069277     -1.29542019617142
  C   -4.66090089903449      0.15172566747948      0.09751485767532
  H   -4.49986297675367     -1.57338486406922      1.37446280958125
  H   -4.50130788409125      1.86999823487833     -1.18898803628309
  H   -5.74352332523751      0.18179606824394      0.13874168302131
  C   0.43952435075127      1.11595542508729      0.27078011484582
  H   0.07066383764132      2.09455708336348      0.55650811648135
  C   1.99371968689000     -0.59741894889493     -0.16171230793466
  S   0.47382399570669     -1.38042843757387     -0.40249989011551
