25
Coordinates from ORCA-job mp2_opt
  C   1.83264454581309      0.78592609626442     -0.06007609126952
  C   2.98336100025265      1.59465127372827     -0.11150006636086
  C   4.23268245690981      1.00242269290330     -0.05859626788824
  C   4.36811071570693     -0.39455028964114      0.04537396710781
  C   3.25367896712912     -1.21731502757048      0.09603885627407
  H   2.88415996572184      2.67229561088329     -0.19205537910281
  H   5.12216751100898      1.62098310105595     -0.09711833595073
  H   5.35790159530945     -0.83483885377871      0.08639251361172
  H   3.35830848084125     -2.29387534296310      0.17462829748169
  C   -0.40053729193451      0.09046614484371     -0.03838374912590
  C   -1.86169392392212      0.10455237091733     -0.03067883728764
  C   -2.60031159144499     -1.07954229336366     -0.17162222961314
  C   -2.56004449365755      1.30930753858533      0.14386805305413
  C   -3.99092780570582     -1.05802609294253     -0.15211566512067
  H   -2.08441897696831     -2.02291880942627     -0.31734565554594
  C   -3.94965275350614      1.32849772362522      0.15751017666451
  H   -2.01269304807758      2.23365871270465      0.28746991750504
  C   -4.67344756643079      0.14570105965493      0.00995476381207
  H   -4.54190969930506     -1.98479659752549     -0.26571093384194
  H   -4.46993256559024      2.26995678649421      0.29366158071469
  H   -5.75701449452866      0.16247288304079      0.02457377976988
  C   0.46238764276557      1.16116306936570     -0.10075580429043
  H   0.12961700826979      2.18718442612338     -0.19962494597862
  C   1.99017415485895     -0.61932129061426      0.04194287163227
  S   0.46076916648433     -1.41493389236483      0.09075218374854
