19
Coordinates from ORCA-job opt
  C   0.96744444679701      0.99118697162473     -0.00832318425700
  N   -0.39705725173846      1.00137246290790      0.05232513332399
  C   1.64532571576607      2.27805342431142     -0.02833773317844
  C   1.61541199046554     -0.21448511462966     -0.07096648331578
  C   -1.24183928032147     -0.11539580860097      0.04602790933555
  H   -0.88079384569481      1.88562738966469      0.16845542310381
  C   -0.52173077481052     -1.36521456725070     -0.02355051237354
  O   -2.45935590156630      0.03210778419197      0.10997533843914
  C   0.84382642054767     -1.40114821089995     -0.07103836388098
  H   -1.11795561191123     -2.26854878050577     -0.02110507670378
  H   1.34926802784607     -2.36000851625003     -0.11833309675029
  H   2.69322683544739     -0.23845564510245     -0.14910771041336
  C   2.95221495848330      2.57507562903007      0.46764761598529
  C   1.16443045801730      3.45851499923661     -0.54050407890299
  C   3.15869732977414      3.89948493601078      0.22438557599795
  H   3.63104747918688      1.90026564660857      0.96425781698848
  O   2.07828547170617      4.44825508552610     -0.39033223121200
  H   3.97493728272037      4.57245705325889      0.42685609760615
  H   0.25691624928489      3.72905426086777     -1.05623243979219
