19
Coordinates from ORCA-job opt
  C   0.99322305074038      0.97140125538536     -0.13251666654690
  N   0.01328045344006      0.83578237529893      0.80775703774127
  C   1.75881664684089      2.20990958893818     -0.11630967978684
  C   1.21885786859396     -0.06876621033313     -0.99686321467513
  C   -0.83091589192322     -0.26753231100611      0.98702917518584
  H   -0.19224565255070      1.61032590691787      1.42888485822956
  C   -0.56874432594438     -1.33403351786938      0.05110941583873
  O   -1.68501408066736     -0.25048373414575      1.86967335777110
  C   0.41070516402404     -1.22500556521693     -0.89653839970730
  H   -1.18810856320337     -2.21757383794040      0.13529894510910
  H   0.58115149245357     -2.04835463086441     -1.58225841785641
  H   2.01878143815137     -0.00246682307025     -1.72088895434443
  C   1.83245436401736      3.18204938911224      0.93134687268579
  C   2.51854806994122      2.71646635383910     -1.14172885119732
  C   2.64112513816570      4.17803092986348      0.47123643470740
  H   1.39180645955332      3.14027368761646      1.91544875080862
  O   3.06306238624714      3.90607756027612     -0.78945754823501
  H   2.99949374299550      5.09850774571649      0.90054169055416
  H   2.73602023912453      2.37359183748213     -2.13966580628222
