19
Coordinates from ORCA-job opt
  C   0.89164942155576      1.03954692081502     -0.02599246761387
  N   0.94200520964858      0.15670757379362      1.01538423414217
  C   1.70699546912852      2.23958230323183      0.06639816700355
  C   0.11405082330738      0.72739570509649     -1.11073461785640
  C   0.26898759243722     -1.06717389867604      1.10922328099290
  H   1.46435417588858      0.39661295742169      1.85067552728275
  C   -0.53682841931283     -1.35861476929742     -0.05303214203929
  O   0.39343501523833     -1.76259554664691      2.11375168679295
  C   -0.60831304222411     -0.48963579660927     -1.10524646432315
  H   -1.08785206463686     -2.29007837140490     -0.04070817717225
  H   -1.22729999624740     -0.73943191445464     -1.96055262548727
  H   0.08159600840401      1.39649673835258     -1.95847027649375
  C   1.61009863993236      3.41288189480490     -0.74571381871423
  C   2.76223150236040      2.46684592892471      0.91707794570622
  C   2.59332329038507      4.25319674919562     -0.32079598431463
  H   0.88910457683853      3.61864890334896     -1.52032462388338
  O   3.30340907319647      3.68885134936299      0.69065174671724
  H   2.90074835248295      5.24265494408360     -0.61507881561978
  H   3.25060437161701      1.87630632865714      1.67558742488022
