19
Coordinates from ORCA-job opt
  C   0.98627060287848      0.97527710687853     -0.08593709160354
  N   -0.35061135304299      1.00014662706897      0.19212506958413
  C   1.68256748745349      2.25977592026301     -0.10153679138456
  C   1.59675830819068     -0.23123360060648     -0.29986658130907
  C   -1.20919729693835     -0.10486323388305      0.25891450494014
  H   -0.79185685154603      1.89180178199206      0.39352484509080
  C   -0.52952522949896     -1.35728852850957      0.02417495018284
  O   -2.40160808370155      0.05306535721277      0.50700232084234
  C   0.81141516964942     -1.40791891085193     -0.23646149021322
  H   -1.13543124224307     -2.25284475566591      0.07407522870644
  H   1.28411662346799     -2.36976601314825     -0.40540042608603
  H   2.65249967299218     -0.25896169021775     -0.53094188261622
  C   2.80948410647349      2.64553457935440      0.68688941799074
  C   1.33809573535552      3.36959150817128     -0.83100598568763
  C   3.06814323410037      3.94551979476705      0.36707066780380
  H   3.34181077491268      2.03575446827506      1.39962515492613
  O   2.17906053074879      4.39594451200831     -0.55682344918252
  H   3.80315629334930      4.65999540405232      0.69776974590564
  H   0.57715351739853      3.55866967283918     -1.57110020789022
