19
Coordinates from ORCA-job opt
  C   0.96454727157921      0.98819927119191      0.08571779560421
  N   -0.28688964716787      0.96133316421748     -0.46043408138266
  C   1.65275422021761      2.27527836083799      0.10209395746055
  C   1.50667777566648     -0.17698271655971      0.55829962518125
  C   -1.12399149945145     -0.15631001250073     -0.57276723934135
  H   -0.66701862703785      1.81517129450677     -0.85628923336034
  C   -0.51906002187409     -1.36339265433533     -0.06041710719840
  O   -2.23815399370236     -0.04536349424015     -1.07740381067767
  C   0.73997045288189     -1.36423802458406      0.47210968335313
  H   -1.11020212552333     -2.26747175558979     -0.12974292636544
  H   1.15920394614423     -2.29326278904730      0.84399107922626
  H   2.49101994786706     -0.16263558110104      1.00514396134246
  C   2.96494471040681      2.56307067911773     -0.38326618199433
  C   1.14164595232624      3.47369923275371      0.53343698347151
  C   3.15160495554968      3.90105222811980     -0.19975834219245
  H   3.66208070403080      1.86620094704658     -0.82092253320139
  O   2.04863541213875      4.46515727134001      0.35887415122853
  H   3.96528581942959      4.57382251469649     -0.41280281783138
  H   0.20924374651860      3.75487306412962      0.99623603667750
