19
Coordinates from ORCA-job opt
  C   0.96237980712760      0.99495087991213      0.01010618470231
  N   -0.40361042238092      1.00025379377504      0.01757592218536
  C   1.63833636930953      2.28213044238106     -0.00840815033987
  C   1.61447467276141     -0.21009178912070     -0.01613258691504
  C   -1.24433481727220     -0.11913307260763     -0.00365876105739
  H   -0.89714880908501      1.88206890100994      0.10545176192941
  C   -0.51941060358306     -1.36771755723477     -0.03328284297065
  O   -2.46369315518703      0.02565103125621      0.01562728131330
  C   0.84693692568272     -1.39919450864277     -0.03103766804864
  H   -1.11284704620875     -2.27282042701446     -0.04234976695786
  H   1.35701506694548     -2.35658624496757     -0.04921371935966
  H   2.69428115790889     -0.23393063169458     -0.05394901606314
  C   2.97631030639431      2.56155839904313      0.41024792698280
  C   1.13548425293228      3.47691194215889     -0.46400389219400
  C   3.17501888638715      3.89029749632893      0.18717103467049
  H   3.68278981694314      1.87439776037316      0.84758874025758
  O   2.06235682303115      4.45900826561888     -0.34634477507143
  H   4.00690228037927      4.55379802801841      0.35413939757711
  H   0.20105948791401      3.76664729140670     -0.91742607064068
