19
Coordinates from ORCA-job opt
  C   0.99561904127472      0.96952710118005     -0.12805463200051
  N   0.12642210054156      0.76232578178465      0.90327555258071
  C   1.75374416928717      2.21368397047835     -0.11819731754774
  C   1.07885846517507      0.01612627939888     -1.11037647785321
  C   -0.70609995880057     -0.34836608776390      1.09218650547213
  H   0.06293716243061      1.44414620778088      1.65028655690225
  C   -0.58297826927214     -1.32852634587857      0.04112142405571
  O   -1.43578458956131     -0.40685580376824      2.07871261590332
  C   0.27684256254100     -1.14327265628265     -1.00575228505074
  H   -1.20032306346319     -2.21341034917599      0.12550427916725
  H   0.34337053923165     -1.90102271561976     -1.77941351189695
  H   1.74143774687112      0.16364968059500     -1.95138994523773
  C   1.62923205845023      3.31152099841574      0.79218219305715
  C   2.77619458239212      2.55886404114454     -0.96802497601691
  C   2.56446686338888      4.22857895464734      0.41646744605264
  H   0.93082236362378      3.43839161191171      1.60470205755182
  O   3.26875871591377      3.78073422427007     -0.65292161253107
  H   2.83847603674126      5.20124126245904      0.78903987610560
  H   3.25030247323426      2.06086284442283     -1.79724774871372
