19
Coordinates from ORCA-job opt
  C   0.91882969361263      1.02111312379371     -0.05754261384975
  N   0.86688651598537      0.21666700775237      1.04502514457009
  C   1.73792684789574      2.22061205880031      0.02939368448878
  C   0.22075620554157      0.65210123422123     -1.17720109711291
  C   0.17052802698913     -0.99244712142534      1.16434475093255
  H   1.32543100609355      0.51813958378581      1.89850859224884
  C   -0.54910411606413     -1.34772421192702     -0.03623065737975
  O   0.20418724563517     -1.62219873708531      2.21814715793351
  C   -0.52461718193976     -0.55086909161580     -1.14657293781529
  H   -1.11843959986120     -2.26772821180036     -0.00508546108617
  H   -1.08184931266215     -0.84994158946121     -2.02814721232136
  H   0.27504869494132      1.26458456973271     -2.06625833595149
  C   1.50815866169813      3.47402602236933     -0.61700561257881
  C   2.89509135779591      2.38034557421669      0.75193626873771
  C   2.53228070967627      4.28925816753497     -0.23895387904593
  H   0.67766957114589      3.73730299985167     -1.25250796649995
  O   3.38398528443476      3.63449800129736      0.59309649614465
  H   2.78211501213142      5.31485858629000     -0.45308654801233
  H   3.48741637695037      1.71560503366889      1.36024022659759
