19
Coordinates from ORCA-job opt
  C   0.99078466446331      0.97282402841883     -0.11775444044036
  N   -0.10036750531205      0.89491768646794      0.69980074608346
  C   1.71732750790167      2.23533849265137     -0.12473673078749
  C   1.33281567737440     -0.11908957783939     -0.87091316913535
  C   -0.93865091152282     -0.21394087716708      0.86899969135029
  H   -0.38142939681599      1.71505395579922      1.22726117662053
  C   -0.55071831136061     -1.34083685356874      0.05304547303844
  O   -1.89126203868937     -0.15604437929579      1.64188949657410
  C   0.53219017878813     -1.28340528715750     -0.77878939615710
  H   -1.16381509890992     -2.22928709379463      0.13253449887052
  H   0.79262874860753     -2.15268400325873     -1.37350862004699
  H   2.21720782110733     -0.08146992212938     -1.49146069754937
  C   2.04172331104230      3.06344649320282      0.99564068662294
  C   2.24570335106729      2.86600373851676     -1.22133902135286
  C   2.74348287474752      4.11917033575418      0.49382877385521
  H   1.81666140160980      2.88168244745595      2.03526190204768
  O   2.87230156916148      4.01022716857326     -0.85387420559272
  H   3.20519149309781      4.98302584277369      0.94184231667232
  H   2.23052566364220      2.64326780459720     -2.27562848067324
