19
Coordinates from ORCA-job opt
  C   0.92579272490080      1.01635328982633     -0.06477001007712
  N   0.85428627823738      0.22766671627508      1.04797690787951
  C   1.74479173367146      2.21673778310776      0.02067247205686
  C   0.24107533950133      0.63661457238151     -1.18892011136240
  C   0.15188205676298     -0.97745963821054      1.17309177799667
  H   1.30492197291969      0.53855358948117      1.90239426830404
  C   -0.55319804497879     -1.34471246956042     -0.03250769172427
  O   0.16906418207999     -1.59423364865236      2.23495348635671
  C   -0.51014968227208     -0.56262840010766     -1.15279992095285
  H   -1.12697033102323     -2.26181744210122      0.00273761377619
  H   -1.05685608825361     -0.87085934293889     -2.03780517795460
  H   0.31007211561660      1.23831374575032     -2.08436520115118
  C   1.49182559322018      3.48259678343907     -0.59154858362967
  C   2.91754222459877      2.36754879512270      0.71926938733789
  C   2.52104942448327      4.29530562968786     -0.22134768193164
  H   0.64443396323086      3.75329860089443     -1.20115077481835
  O   3.39613583248270      3.62739564932893      0.57529439158316
  H   2.76054286475636      5.32663683796850     -0.41912611809320
  H   3.52605784006534      1.69288894830741      1.30005096640425
