19
Coordinates from ORCA-job opt
  C   0.99438247995243      0.97092950330329     -0.12894269965374
  N   -0.03762854459752      0.86603541656765      0.75890433736634
  C   1.74302637510107      2.21940492164615     -0.12355095009042
  C   1.27510183666226     -0.09683431629334     -0.94115385161457
  C   -0.87993042624172     -0.23878029912587      0.93557137555150
  H   -0.28153807441562      1.66662041754283      1.33211183550971
  C   -0.55974133069429     -1.33639452245136      0.05419556152414
  O   -1.78156606386436     -0.19874372838475      1.76846924907366
  C   0.46862215585915     -1.25542813004951     -0.84278761894121
  H   -1.17761999636754     -2.22110253175949      0.13814794900839
  H   0.68107105437805     -2.10268465191473     -1.48643240666894
  H   2.11847825271455     -0.04874102355056     -1.61582638167780
  C   1.92669240432834      3.12506323539277      0.96859545831690
  C   2.39289067525303      2.78735624199263     -1.19012271036722
  C   2.68303733906246      4.15164478866085      0.48679935655517
  H   1.58852944865065      3.01283028139418      1.98727609617749
  O   2.97144983638902      3.95718805665263     -0.82536517289318
  H   3.08699219606339      5.04618941847199      0.93032402754277
  H   2.50004838176666      2.50364792190463     -2.22411345471898
