19
Coordinates from ORCA-job opt
  C   0.98685841558930      0.97485498474290     -0.10893929827372
  N   -0.13749215794032      0.90920486451230      0.66394454995468
  C   1.70332829161123      2.24469568290160     -0.12055437130379
  C   1.36336933439779     -0.12903899540645     -0.82655103277483
  C   -0.97406948924433     -0.20192341533691      0.82585613201894
  H   -0.43918155107591      1.73804156735552      1.16602381300749
  C   -0.54729323268508     -1.34348642399782      0.05013518433888
  O   -1.95610207630763     -0.13520757776264      1.56015772925473
  C   0.56686157272119     -1.29718876664540     -0.73979263178832
  H   -1.15763254012681     -2.23424299214386      0.12526422961699
  H   0.85484070633963     -2.17722073520847     -1.30527138850096
  H   2.26882004641325     -0.09543206544223     -1.41609205614978
  C   2.11307500342452      3.02773953399775      1.00422771589263
  C   2.15987938427278      2.91114723033918     -1.22745987683786
  C   2.78258833291168      4.09985144411307      0.49305116436516
  H   1.95526819158375      2.80786127750504      2.04878638210015
  O   2.81579875420948      4.04003591790745     -0.86377428994643
  H   3.27885247364392      4.94584913556582      0.93821066156743
  H   2.07452954026156      2.72266033300316     -2.28512261654139
