19
Coordinates from ORCA-job opt
  C   0.97306713263740      0.98254571275506     -0.10417000457977
  N   0.39092101925155      0.56725572159536      1.05995067101368
  C   1.78246234439572      2.19666637743406     -0.03993472386420
  C   0.78963873085939      0.23997923646054     -1.23940668322328
  C   -0.42083799190599     -0.56100974726876      1.22948061453099
  H   0.55378773397104      1.10014925251081      1.90830447922531
  C   -0.58980006576103     -1.31840744740952      0.01066427946223
  O   -0.89726108512900     -0.82156488743549      2.33086611583707
  C   -0.00457299344090     -0.93096843732814     -1.16167843380477
  H   -1.20119482393590     -2.20921918786729      0.07638951921397
  H   -0.15715658894221     -1.52757288716689     -2.05494163009679
  H   1.23100580695519      0.57396151467749     -2.16785897976527
  C   1.36352350453465      3.50789158903253      0.34890478737536
  C   3.09624557463021      2.31654767187270     -0.40852329025448
  C   2.45243673209037      4.31325281802333      0.19139035852384
  H   0.38221659551481      3.80908593658219      0.68118929033115
  O   3.51298780380357      3.59838292304802     -0.26761274317637
  H   2.62621648555837      5.36515263882440      0.34459101258267
  H   3.82861108491278      1.60607120165958     -0.75550363933133
