19
Coordinates from ORCA-job opt
  C   0.90620861500432      1.02966066895929     -0.04420443398682
  N   0.89160476087409      0.19582720802079      1.03761294335833
  C   1.72483469053140      2.22830575690057      0.04518524702253
  C   0.18192897857374      0.68068699514660     -1.15387696834621
  C   0.20588055334599     -1.02012793135486      1.14638101212165
  H   1.36769878851075      0.47788537907431      1.88787672756065
  C   -0.54222800090116     -1.35295518030381     -0.04314266971593
  O   0.27128429668417     -1.67398384668511      2.18386473181023
  C   -0.55287380323286     -0.52888045492309     -1.13351036670712
  H   -1.10340293869053     -2.27816529492667     -0.01965073629048
  H   -1.13059811118388     -0.81066351164209     -2.00755185519395
  H   0.20682840643075      1.31356456541463     -2.02968365888909
  C   1.54133307744990      3.45547903393139     -0.66415530354759
  C   2.85029486724937      2.40750596205469      0.81247102192838
  C   2.55443366309540      4.27674640052998     -0.27108056688101
  H   0.74567761335869      3.70239088241270     -1.34874711151069
  O   3.35914433577951      3.65004779979532      0.62663836643478
  H   2.82483243753141      5.29024310035954     -0.51571738943852
  H   3.40941776958893      1.76463146723581      1.47339301027086
