19
Coordinates from ORCA-job opt
  C   0.96496628601790      0.99304610512029      0.00105947868577
  N   -0.40051531184544      1.00090835784454      0.03596284209288
  C   1.64175774559177      2.28008668994808     -0.01837543550899
  C   1.61517534857697     -0.21231643799935     -0.04436025843240
  C   -1.24333778001608     -0.11715092086125      0.02205124270357
  H   -0.88907958679248      1.88396856045719      0.13931886938110
  C   -0.52064753572315     -1.36637399552292     -0.02861720750595
  O   -2.46194672829119      0.02901557682818      0.06453547232776
  C   0.84552545865658     -1.40016503555111     -0.05197000430243
  H   -1.11553018238739     -2.27057889457781     -0.03199087374027
  H   1.35337125210668     -2.35833305958410     -0.08547221033561
  H   2.69413457363667     -0.23615293124945     -0.10328447715361
  C   2.96430645924826      2.56846714342078      0.44041203175406
  C   1.14992173925340      3.46740741772026     -0.50403408851789
  C   3.16693640350185      3.89492656766157      0.20629261885943
  H   3.65681192476974      1.88770900344806      0.90913860049092
  O   2.07035659914118      4.45338138891237     -0.36977229759880
  H   3.99100338591798      4.56328239686024      0.39163682065748
  H   0.22909094863674      3.74707306712440     -0.99043112385700
