19
Coordinates from ORCA-job opt
  C   0.94063105283735      1.00603987690504     -0.08030108843154
  N   0.82654314941344      0.25244455893728      1.05292906600492
  C   1.75862707748183      2.20932823561298      0.00146535198941
  C   0.28538660166349      0.60165177459327     -1.21301894813661
  C   0.11052380908121     -0.94345910135850      1.19086344323378
  H   1.26142944145137      0.58272714642915      1.90839517268046
  C   -0.56243168162863     -1.33802010993813     -0.02441911362899
  O   0.09185102899178     -1.53096890029753      2.26919957930619
  C   -0.47838955918773     -0.58940037496587     -1.16514135955025
  H   -1.14558198806444     -2.24883279021010      0.01953863562386
  H   -1.00172758236180     -0.91841497408121     -2.05676968365452
  H   0.38537379837369      1.17951279927982     -2.12123611704401
  C   1.45775150875544      3.49941189832111     -0.53296558436514
  C   2.96432039172232      2.34256827244548      0.64455814913293
  C   2.49792806864429      4.30711489147070     -0.18154394686097
  H   0.57576212709045      3.78482669235517     -1.08407783581851
  O   3.42171552953755      3.61346066507749      0.53410296824344
  H   2.71637488230785      5.34935683729165     -0.34313411492491
  H   3.60621234389051      1.64885260213219      1.16365342620047
