19
Coordinates from ORCA-job opt
  C   0.99649513379962      0.96935583808851     -0.12997711104550
  N   0.18231107442776      0.73013402810272      0.93898161435309
  C   1.75804200124970      2.21039269652021     -0.11691537585176
  C   1.01667002231704      0.05761113018235     -1.15382652182139
  C   -0.64645281818978     -0.38282597983577      1.13023877357018
  H   0.18494300034704      1.37457358339894      1.72170126311419
  C   -0.58716275717734     -1.32251822262661      0.03681766254585
  O   -1.32042870198169     -0.47836249764145      2.15271810640592
  C   0.21609369275477     -1.10336433164198     -1.04761527126577
  H   -1.20478101171737     -2.20714950685922      0.12236675074910
  H   0.23329188794224     -1.83092776380452     -1.85230359211354
  H   1.61953710685293      0.24708257340405     -2.03083207842737
  C   1.55132308502116      3.35777237650130      0.71305382751820
  C   2.87200080002796      2.49553261925063     -0.86729190257207
  C   2.53167663862790      4.24644128624800      0.38624451300804
  H   0.75996608962393      3.53520677433721      1.42484288101777
  O   3.34181280822139      3.73183818126774     -0.57302775186220
  H   2.77331404507457      5.23988331900844      0.72490803026087
  H   3.43364790277816      1.93752189609943     -1.59798481758359
