19
Coordinates from ORCA-job opt
  C   0.97269775646008      0.97989620005956     -0.11117401836697
  N   0.62225621303127      0.40785506175769      1.07872562645619
  C   1.78131502921235      2.20196780288380     -0.04305791968898
  C   0.53904690146094      0.40771403000770     -1.27551081744863
  C   -0.15303487621350     -0.74568076085875      1.25327963845460
  H   0.94106145083814      0.83915643069314      1.94051907424256
  C   -0.59118521507095     -1.31975054576767      0.00220577053617
  O   -0.39434250569591     -1.16517558682560      2.38203630564288
  C   -0.25693637962734     -0.76234780933643     -1.19988838454011
  H   -1.19845481332142     -2.21345536413412      0.06745133389573
  H   -0.60580265623042     -1.22595047013929     -2.11664549714283
  H   0.81341167887649      0.85516649636676     -2.22040155684781
  C   1.32271683752934      3.55366563996148     -0.11261773141047
  C   3.13794801609863      2.27494488622367      0.13337183357042
  C   2.43182823339377      4.33635042199969      0.01945142971394
  H   0.30599610125430      3.88823973692160     -0.24549458049677
  O   3.54248878055036      3.56744945360644      0.16988612079383
  H   2.59350204401268      5.40117185271745      0.02786004996253
  H   3.90778940344118      1.52698052386288      0.23210532267372
