19
Coordinates from ORCA-job opt
  C   0.97512754806855      0.98518287368136     -0.03939454417074
  N   -0.38331556412945      1.00209907617124      0.10051184205879
  C   1.65814002846272      2.27129321007012     -0.05961005715887
  C   1.61331843528464     -0.22150213961326     -0.15344704969830
  C   -1.23397481106267     -0.11037172825772      0.12044155745001
  H   -0.85169472404019      1.88997077126710      0.24951417385668
  C   -0.52474009699036     -1.36198996378586     -0.00569491865451
  O   -2.44574483658559      0.04154853334870      0.25014316514934
  C   0.83606170910202     -1.40440387379549     -0.12851412988299
  H   -1.12496953414530     -2.26244638821510      0.01573588687001
  H   1.33223674148457     -2.36517336458112     -0.21719109302904
  H   2.68565368658806     -0.24678751744875     -0.28824566749566
  C   2.90953099329591      2.59680575539361      0.54774484038117
  C   1.21596033058762      3.43009553027259     -0.64891164215158
  C   3.12955598553898      3.91475865793002      0.27959163232790
  H   3.54249216150300      1.94131598784349      1.12456741683948
  O   2.10628510016822      4.43229370835899     -0.44957277349727
  H   3.91889785591425      4.60232666130212      0.53316212870955
  H   0.35347599095502      3.67318421005798     -1.24872976790397
