19
Coordinates from ORCA-job opt
  C   0.98316476677644      0.97738855151093     -0.11777799506180
  N   0.32302204626660      0.62599588763216      1.02510891678103
  C   1.78222763558448      2.19504021357002     -0.06690750193426
  C   0.86598513789477      0.17722226909848     -1.22317841184848
  C   -0.49922515917871     -0.49347041455675      1.20255638844361
  H   0.44043895980472      1.19515146973544      1.85712308718396
  C   -0.59227256321091     -1.31504059626617      0.01806985997145
  O   -1.04361966295134     -0.69545250926377      2.28465560348935
  C   0.06777141159040     -0.98924794895370     -1.13340783840761
  H   -1.20825089999146     -2.20198275010459      0.09212664031337
  H   -0.03007457971604     -1.63146822253575     -2.00239515787523
  H   1.35613027442010      0.46587945445057     -2.14243048193091
  C   1.41030434149463      3.46236878718324      0.48241999897034
  C   3.04619525922379      2.36145827369514     -0.57017647877522
  C   2.46992476264841      4.29259807057531      0.26601001396394
  H   0.47237778864203      3.72780137260895      0.94531614131365
  O   3.47136750375442      3.63306298763424     -0.37223876926840
  H   2.65592254297537      5.33062906302646      0.48520781527581
  H   3.74090943397227      1.69026704095978     -1.04798083060459
