19
Coordinates from ORCA-job opt
  C   0.95570673695956      0.99520590316785     -0.09620364450463
  N   0.79198096265948      0.28308698408457      1.05756465077504
  C   1.77163512276962      2.20301367640356     -0.01912922597906
  C   0.33731281413210      0.55944222351997     -1.23751243881086
  C   0.06012040972331     -0.90171208169678      1.20959960917627
  H   1.20888350659609      0.63475215741460      1.91358045714249
  C   -0.57291635709712     -1.33056647241067     -0.01548977628110
  O   -0.00083385414541     -1.45389317429876      2.30491051720188
  C   -0.43963649573134     -0.62275020043140     -1.17737416500401
  H   -1.16573172969963     -2.23465947768140      0.03742515003029
  H   -0.93368466879466     -0.97775477199191     -2.07572135241196
  H   0.47277723290487      1.10893733459492     -2.15865830328941
  C   1.42058062102575      3.51599422598944     -0.45854405730983
  C   3.01480133833648      2.31853136552486      0.55068815848506
  C   2.47424596140152      4.31816053290733     -0.13445830684193
  H   0.50143077809648      3.81609814908659     -0.93632050604579
  O   3.45091677891790      3.59945495636054      0.47905788489828
  H   2.67156626544283      5.37018807725249     -0.25440484536167
  H   3.69314457650215      1.60667159220419      0.99309219413095
