19
Coordinates from ORCA-job opt
  C   0.98105430808740      0.98020855165854     -0.06367040254533
  N   -0.36901353008949      1.00186782433479      0.14110780108557
  C   1.66993258528888      2.26553601675535     -0.08236937180546
  C   1.60788213439860     -0.22706475384920     -0.22174882286152
  C   -1.22404161821464     -0.10687890155863      0.18360226080970
  H   -0.82464580537696      1.89216488974130      0.31408819133698
  C   -0.52705879784838     -1.35958913655799      0.00926385692272
  O   -2.42827698986722      0.04864985659738      0.36790557004530
  C   0.82639505052817     -1.40681653227179     -0.17702633116663
  H   -1.13025883458347     -2.25760807271015      0.04542801862226
  H   1.31270193390590     -2.36870237612260     -0.30119651787867
  H   2.67359436656344     -0.25388788584013     -0.40160424179603
  C   2.86732676266033      2.61741030212386      0.61238195090590
  C   1.26735431887320      3.40403302106596     -0.73510159351580
  C   3.10202306134965      3.92861270305974      0.32255042211307
  H   3.45735243806460      1.98092482709380      1.25261214240815
  O   2.13531901210024      4.41732942244235     -0.49805905489506
  H   3.86670436056551      4.62860262494569      0.61472681243459
  H   0.44795624359423      3.62340761909174     -1.40079069021973
