19
Coordinates from ORCA-job opt
  C   0.94856754742232      1.00038906999025     -0.08871224971901
  N   0.80963782468267      0.26757395531524      1.05530059829667
  C   1.76559991861980      2.20584894483423     -0.00928050731393
  C   0.31133632229116      0.58061526360674     -1.22587349350582
  C   0.08564541348578     -0.92278063901078      1.20052659032343
  H   1.23561087192667      0.60870338966217      1.91106352156978
  C   -0.56777872115845     -1.33420285469543     -0.01981273546300
  O   0.04586495465577     -1.49265667754789      2.28772451676212
  C   -0.45930167791073     -0.60585208457116     -1.17155483733280
  H   -1.15599189827182     -2.24152374782172      0.02887322563239
  H   -0.96832429643523     -0.94765434417459     -2.06665494564210
  H   0.42907660519027      1.14430760744397     -2.14085881812812
  C   1.43874351621363      3.50816841762810     -0.49649094332793
  C   2.99020555547946      2.32979284536113      0.59840387508079
  C   2.48560130902358      4.31302154800563     -0.15790530713830
  H   0.53772824655835      3.80138972453463     -1.01159463477343
  O   3.43645388221971      3.60609114182555      0.50759372877119
  H   2.69296114450617      5.36056452954093     -0.29842533105879
  H   3.65066348150090      1.62640491007298      1.07977774696686
