19
Coordinates from ORCA-job opt
  C   0.98038700452824      0.97889192957178     -0.11397544545006
  N   0.34108474161173      0.61027465189458      1.03547424019368
  C   1.78306586538071      2.19487048378682     -0.05875453639627
  C   0.84596692783615      0.19413469017014     -1.22815792311620
  C   -0.47877236870564     -0.51129020802975      1.21045412248386
  H   0.47067760193164      1.16970556238309      1.87232097067828
  C   -0.59171273444142     -1.31573352990922      0.01581485984892
  O   -1.00555558262770     -0.72891646745540      2.29819130505368
  C   0.04877155979044     -0.97357497409198     -1.14184647132438
  H   -1.20658743872838     -2.20365176454222      0.08747724444899
  H   -0.06349184126749     -1.60361186748714     -2.01797735105673
  H   1.32311011189815      0.49528723729957     -2.15020514370761
  C   1.39643921727750      3.47547514207817      0.44796231328439
  C   3.06149918492775      2.34782979828923     -0.52784687253787
  C   2.46441928244831      4.29863282267634      0.24597323601413
  H   0.44550109279879      3.75114740935433      0.87700078384246
  O   3.48367134156158      3.62276012442573     -0.34561335439629
  H   2.64632654841714      5.34103357079840      0.44714007809086
  H   3.76750048536247      1.66493538878751     -0.97133305595384
