19
Coordinates from ORCA-job opt
  C   0.89524671581825      1.03706624432782     -0.03144552528075
  N   0.92182810612686      0.17184708809992      1.02539320584775
  C   1.71221741968607      2.23613524615600      0.06000652732669
  C   0.13898240088679      0.71074550183099     -1.12687301010001
  C   0.24536465310379     -1.04989770052927      1.12392861495556
  H   1.42388535122665      0.42891970307000      1.86825085107234
  C   -0.53741503369789     -1.35725913734562     -0.04997708018293
  O   0.34726820440015     -1.72996863725116      2.14141793864877
  C   -0.58658611339118     -0.50441992002332     -1.11670305519231
  H   -1.09119842710363     -2.28704725180407     -0.03408303634642
  H   -1.18912210330394     -0.76646705934885     -1.98005862992543
  H   0.12871237788508      1.36624863849206     -1.98590175828423
  C   1.58255997691862      3.43044410615575     -0.71540196232922
  C   2.79661778709712      2.44290147067581      0.87835663714920
  C   2.57919091759425      4.26192805716578     -0.30369112830082
  H   0.83121758117744      3.65386100461581     -1.45565559682770
  O   3.32672843829307      3.67219249104259      0.66550173037877
  H   2.87301213886878      5.26052559681277     -0.58048325995990
  H   3.31378860841373      1.83044455785700      1.59951653735063
