19
Coordinates from ORCA-job opt
  C   0.91226013688949      1.02557140467829     -0.05067483905634
  N   0.87922224131783      0.20613440602210      1.04160731076809
  C   1.73122815837433      2.22449824871192      0.03757411505450
  C   0.20110847841833      0.66673063664027     -1.16554418726984
  C   0.18843547355478     -1.00659113924673      1.15548092853706
  H   1.34614683283223      0.49806521699279      1.89375032608976
  C   -0.54541572219777     -1.35048480303984     -0.03977843791025
  O   0.23809018028649     -1.64863681622724      2.20118908090129
  C   -0.53875766461991     -0.53969794288207     -1.14017309565383
  H   -1.11052687849534     -2.27320388136255     -0.01255753224116
  H   -1.10624306806917     -0.83002558403647     -2.01812014794728
  H   0.24077052639039      1.28956208717633     -2.04808008426318
  C   1.52456831266893      3.46504588602160     -0.64104813949983
  C   2.87276045555573      2.39360428033252      0.78281197721603
  C   2.54341363368576      4.28306559527643     -0.25548439677316
  H   0.71123236111506      3.72047975613641     -1.30138127882758
  O   3.37175065928688      3.64197874036975      0.61006835604006
  H   2.80355120333397      5.30271923482090     -0.48519731287603
  H   3.44870667967200      1.73938367361558      1.41765835771169
