19
Coordinates from ORCA-job opt
  C   0.95807173808789      1.01362025773254     -0.07758707793210
  N   0.26520721852025      0.62188255124144      1.03182364462936
  C   1.63327778356018      2.29248617127583     -0.00113693011763
  C   0.98853500010306      0.19305204980977     -1.17497357419830
  C   -0.48457110813666     -0.55294729789405      1.16803273709633
  H   0.29114690426177      1.20295803742078      1.86336842904544
  C   -0.43209784107042     -1.39209778739085     -0.00667035810564
  O   -1.08267164534310     -0.78600114474380      2.21461627388214
  C   0.28093834678528     -1.03059804653965     -1.11619161944294
  H   -0.97686878282428     -2.32613783896552      0.04257979458220
  H   0.29774392313367     -1.69191601472370     -1.97606321437167
  H   1.53304619999249      0.50177367576559     -2.05580585020748
  C   1.30069842455535      3.48691450513643      0.59393135484325
  O   2.77085940475187      2.43795543275175     -0.73181767589803
  C   2.31089595269501      4.41220578677366      0.21980518156557
  H   0.42632274715607      3.67571072189295      1.19762706132453
  C   3.17481157463350      3.72844496090755     -0.58665652010266
  H   2.38855244888862      5.45049350784295      0.49942654182651
  H   4.08500071024945      3.99330147170632     -1.09810919841889
