19
Coordinates from ORCA-job opt
  C   0.90204246065678      1.03489424222738      0.09691345832448
  N   0.52749563160986      0.49197644218961     -1.10037525520208
  C   1.57663695840684      2.33158303397460      0.05547423290904
  C   0.64221568827455      0.34975091271529      1.25193743982145
  C   -0.12475724847483     -0.73209847601358     -1.28813704873400
  H   0.72479242720816      1.00435373712759     -1.95420928176699
  C   -0.37867972881856     -1.42704195060046     -0.04597935236608
  O   -0.41945157574740     -1.11353610586634     -2.41719759389221
  C   -0.00971037877949     -0.90531716955735      1.16187101467606
  H   -0.87874165062444     -2.38406865339632     -0.12422166452340
  H   -0.22132766698109     -1.46008641357442      2.06970142968800
  H   0.93708463577432      0.77756690926936      2.19973743020317
  C   1.11594059016260      3.62159037484299      0.01646647526391
  O   2.94231701495108      2.32532278780681      0.06111317139411
  C   2.26538559219581      4.45856760665865     -0.00406107154130
  H   0.07861297387448      3.91728645390437      0.00921642345645
  C   3.34423862266049      3.62262780557957      0.02502968383195
  H   2.29516351763591      5.53586802486293     -0.03207113685407
  H   4.40964113601492      3.78186043784931      0.02499264531152
