19
Coordinates from ORCA-job opt
  C   0.95568307107689      1.00632924931969      0.05956543303626
  N   -0.26629631888046      0.91483818250384     -0.54618977086480
  C   1.61630727115645      2.31044955608174      0.02730135389995
  C   1.48715406798232     -0.10031572177630      0.66278982881150
  C   -1.06674923612677     -0.23028052544725     -0.62999519775520
  H   -0.65631498748284      1.74005985697560     -0.99046858476168
  C   -0.47325166471049     -1.37662613680819      0.02118393050027
  O   -2.14803137751205     -0.19271934243801     -1.21011365879706
  C   0.74500125687332     -1.30730459444615      0.63623759473654
  H   -1.04631602256941     -2.29475283183730     -0.00571176061250
  H   1.15390848934694     -2.19260713549903      1.11135940672901
  H   2.45352351499586     -0.03021759040824      1.14186680577847
  C   2.42119172665093      2.92547338485944     -0.89562276149522
  O   1.44104264264404      3.12601426604349      1.10863661678491
  C   2.76056084432043      4.19447876058108     -0.35098054896850
  H   2.72707339138020      2.50479359004269     -1.84061033711262
  C   2.14148799992730      4.26409747216947      0.86370685691790
  H   3.38290623222530      4.95573678383129     -0.79304285872706
  H   2.10001909870204      5.01365277625214      1.63628965189983
