19
Coordinates from ORCA-job opt
  C   0.93535065422014      1.01922837778916      0.04783828138972
  N   -0.24065599234127      0.88070194728830     -0.63455793310225
  C   1.56943724324034      2.33393069822393      0.01252898689596
  C   1.43058045840612     -0.04495858605021      0.75107114394440
  C   -1.01040815472934     -0.28485648963371     -0.73231918045991
  H   -0.61264134037237      1.68096308968615     -1.13629485566313
  C   -0.45654009182529     -1.38528972381561      0.02361269740609
  O   -2.04059974318428     -0.29485651760127     -1.39994026928339
  C   0.70596820423061     -1.26169199661713      0.73191073260843
  H   -1.01334127568277     -2.31342069801036      0.00129152126341
  H   1.08552592996963     -2.11406413490565      1.28525081096577
  H   2.35871801230842      0.06389658093364      1.29429365394698
  C   2.25256712138688      3.01317011083871     -0.96390558672275
  O   1.61407611959717      3.03324658104854      1.18297238110180
  C   2.72384538538853      4.21241686975500     -0.36370537312903
  H   2.39638654700768      2.67717983663632     -1.97895354753641
  C   2.31203104570061      4.17279668330075      0.93742999494301
  H   3.29933175345463      4.99853973362319     -0.82530593070931
  H   2.41926712322454      4.84416663751024      1.77298247214062
