19
Coordinates from ORCA-job opt
  C   0.92188072421413      1.02907078237348      0.05974040328019
  N   -0.20815049987792      0.85867838828177     -0.68872812880378
  C   1.54059385143610      2.34695353823751      0.02431249118800
  C   1.38128906074600     -0.00784343950807      0.82636014640891
  C   -0.95264883249192     -0.32137280119405     -0.80885180840468
  H   -0.56436265985118      1.64329498624747     -1.22540515843127
  C   -0.43819640201584     -1.39292770154925      0.01277817159898
  O   -1.93704749343378     -0.36179973364521     -1.54152728520649
  C   0.67201481720166     -1.23264185007915      0.79456772275314
  H   -0.98224325494917     -2.32825987617287     -0.01875787771191
  H   1.02287889551504     -2.06371485793258      1.39711749780047
  H   2.27212284907754      0.12655121772068      1.42349206119014
  C   2.11168702109258      3.07939146857291     -0.98715094371522
  O   1.75738716623036      2.96092273181469      1.22161813332235
  C   2.68306893513945      4.22787220164893     -0.37640771416953
  H   2.12265974167547      2.80843950592179     -2.03151505130458
  C   2.44375417379830      4.10503193714963      0.96240121727190
  H   3.21217127495552      5.03524834943739     -0.85647755754940
  H   2.67004063153765      4.71820615267492      1.81863468048279
