19
Coordinates from ORCA-job opt
  C   0.96407819128343      1.00624595338191     -0.00594510835303
  N   -0.39900504354518      1.01091976256743      0.02016523113885
  C   1.62874832533105      2.29151675809519     -0.00300318716103
  C   1.62990974182192     -0.19332929962734     -0.03109006086307
  C   -1.23170662020933     -0.11534024728729      0.02298106535554
  H   -0.88803778281692      1.90031072107286      0.03652563860948
  C   -0.49853894381078     -1.35922256033457      0.00064869534307
  O   -2.45161820342141      0.02027173338818      0.04423790579118
  C   0.86894660961680     -1.38378912511919     -0.02480761683750
  H   -1.08604613314556     -2.26821991582015      0.00427809745905
  H   1.38362792404994     -2.33868216947854     -0.04279153098428
  H   2.71024710829342     -0.21093779580371     -0.05844341586444
  C   2.94700345549395      2.67935403214411      0.04310254443252
  O   0.82594006087241      3.39134248965262     -0.04970606850097
  C   2.94605150628192      4.09808338326483      0.01977573535101
  H   3.80246340884605      2.02479988064857      0.09130409416621
  C   1.63760778202346      4.48411176636097     -0.03505413739241
  H   3.80019350556364      4.75555216007088      0.04292569017788
  H   1.13903610747119      5.43811447282324     -0.06890257186807
