19
Coordinates from ORCA-job opt
  C   0.96099431470596      1.01228480941131      0.08321036260453
  N   0.23334209113477      0.64482503013646     -1.01192896408967
  C   1.62905424772736      2.29404682771370      0.01689775778587
  C   1.02003689730512      0.16971781523263      1.16318515980115
  C   -0.51781161571823     -0.52858759067213     -1.15197768752230
  H   0.23504285807088      1.24032568381054     -1.83335714922221
  C   -0.43410316190920     -1.39136199394032      0.00350046612646
  O   -1.14352613929583     -0.74056991020618     -2.18683899043017
  C   0.30983557334589     -1.05192106911192      1.09963127634499
  H   -0.98069459040636     -2.32411355612394     -0.04938982852728
  H   0.35012137873425     -1.73010462648067      1.94548313926093
  H   1.58965831042863      0.45977954581186      2.03434589758270
  C   1.33779883459767      3.46614331089798     -0.64163479735665
  O   2.72431647854531      2.46332787839981      0.80415318187794
  C   2.32751809582901      4.40276107484714     -0.24205950690505
  H   0.50228137095528      3.63781567724675     -1.30271335111360
  C   3.14073463368667      3.74721928417856      0.63707755520824
  H   2.42490021701794      5.43014305079054     -0.55387986006795
  H   4.01939820524488      4.02936975805786      1.19249533864209
