19
Coordinates from ORCA-job opt
  C   0.85857701811997      1.06241325271685      0.07918690966091
  N   1.01830288521002      0.25619578270428     -1.00854859378527
  C   1.54621324123034      2.33545610584438      0.06391986908033
  C   0.06696586789836      0.63892318530789      1.11695889099774
  C   0.44402883175579     -1.00768331009065     -1.19483951226838
  H   1.60642203030104      0.57195917195090     -1.77330398006502
  C   -0.38516713982315     -1.41958128676254     -0.08668092232675
  O   0.66829442745220     -1.64107398258804     -2.22224321006084
  C   -0.55803128316018     -0.62391084368696      1.01255375745836
  H   -0.86061306329391     -2.38824747853145     -0.17090439768355
  H   -1.18772219720727     -0.96944329475563      1.82565873188854
  H   -0.06278564578072      1.26570586977434      1.98787566300245
  C   1.57274169736078      3.41133882045565      0.91956817241877
  O   2.35174790136066      2.57862522406683     -1.00765496035568
  C   2.44829346412346      4.36321365262457      0.33589957773344
  H   1.02812853773882      3.50249348273921      1.84567163870451
  C   2.89477654046298      3.81450675505547     -0.83184741612832
  H   2.71618209045827      5.33296068017863      0.72344076536832
  H   3.56254379579252      4.14725021299626     -1.60851298363956
