19
Coordinates from ORCA-job opt
  C   0.94332594425889      1.02245847872502      0.09811321204877
  N   0.07916709960617      0.72712162202652     -0.91628492749623
  C   1.59637704361126      2.31103605618952      0.04793709953825
  C   1.14379251738296      0.09934625197985      1.09344381795399
  C   -0.65502150778505     -0.45557493037100     -1.06404410344260
  H   -0.07813718822607      1.40018062727947     -1.65782435257888
  C   -0.41991980832922     -1.40298235237788     -0.00004096742539
  O   -1.40271821861635     -0.59845779309084     -2.02757594565608
  C   0.44182512759345     -1.12613281851102      1.02502373576692
  H   -0.95976122129503     -2.33934912031327     -0.05724167064755
  H   0.59266555902701     -1.86324183194185      1.80667686652357
  H   1.82608453714753      0.32511963033929      1.89995329693492
  C   1.54246121059358      3.36388043244439     -0.83733343550534
  O   2.45609578029681      2.60283860442596      1.05924577185127
  C   2.42361063719080      4.35540470825712     -0.33156956532125
  H   0.94989788752641      3.42642352710322     -1.73691366771684
  C   2.95230223318661      3.84565137820199      0.81894915779203
  H   2.64100699312432      5.32066815916548     -0.75952724632876
  H   3.65584437370590      4.21670937046802      1.54521192370919
