19
Coordinates from ORCA-job opt
  C   0.96392940709916      1.00638388826327     -0.00023178068648
  N   -0.39940857349539      1.01093063720788     -0.00031694021125
  C   1.62870827589519      2.29152569501732      0.00115570506662
  C   1.62999088168278     -0.19355540380136     -0.00145005327681
  C   -1.23202526048913     -0.11543838932556     -0.00189374564194
  H   -0.88865367542604      1.90035916887275      0.00075542247170
  C   -0.49869303062040     -1.35921044003759     -0.00219743843907
  O   -2.45207224060127      0.02055137842768     -0.00028246591521
  C   0.86911376126406     -1.38397649311483     -0.00229419514249
  H   -1.08647105316690     -2.26808711070159     -0.00254504048991
  H   1.38416542928176     -2.33886466417798     -0.00291492156946
  H   2.71069612073014     -0.21129481708655     -0.00141731766023
  C   2.94796214480510      2.67929464729122      0.00163945456453
  O   0.82529059813989      3.39170711856623      0.00226667265484
  C   2.94636856327322      4.09787988549118      0.00317658404802
  H   3.80467389257457      2.02450995766866      0.00099745266383
  C   1.63684089181064      4.48453915846753      0.00342650960822
  H   3.80105674574063      4.75513484714700      0.00395423882402
  H   1.13742612150198      5.43870893582474      0.00437185913108
