19
Coordinates from ORCA-job opt
  C   0.96833700733009      1.00311366053860      0.13469691891011
  N   -0.34580342992740      0.99955248067588     -0.23523522288840
  C   1.65565188577708      2.28263759478715      0.12314972134135
  C   1.59314056507663     -0.18462446930201      0.40781268256504
  C   -1.17348459059099     -0.12538798875504     -0.33227240310147
  H   -0.80489696279433      1.88247585715779     -0.43579998143536
  C   -0.47881522766780     -1.36108519931122     -0.04831405960351
  O   -2.35404234548459     -0.00153015093275     -0.64443296708038
  C   0.84232609867286     -1.38053134201218      0.30133322224166
  H   -1.06163668434165     -2.26999920773384     -0.12564005983283
  H   1.32394568749907     -2.32957125242323      0.51164366129941
  H   2.63019860709578     -0.18057213111551      0.71290834568360
  C   2.79164577911326      2.72314179645568     -0.50762224076774
  O   1.01005572647254      3.33553145096816      0.70593039409845
  C   2.87033376594880      4.12039371795786     -0.26075564689000
  H   3.46892028029511      2.10937142019808     -1.08013753772575
  C   1.76536258054551      4.44256559641159      0.47324967452914
  H   3.63421206342226      4.80540750377471     -0.59173788698156
  H   1.39344819355776      5.36020866266028      0.89742338563824
