19
Coordinates from ORCA-job opt
  C   0.92929093478486      1.02984601779658     -0.11016728543955
  N   -0.01194255258504      0.77665663705733      0.84548680871463
  C   1.57723810681357      2.32133063637296     -0.05918441648041
  C   1.21586767901423      0.06303535664268     -1.04000770446855
  C   -0.73641100434790     -0.41120608648772      1.00188959563353
  H   -0.26337206649382      1.50367019213206      1.50638038734780
  C   -0.40981598411212     -1.40594764188307      0.00702891529058
  O   -1.55739762320817     -0.51674578821022      1.90872079985396
  C   0.51876640839712     -1.16527812012581     -0.96760379957338
  H   -0.94526891773570     -2.34464653045878      0.06744792769570
  H   0.73328317960897     -1.93680429251270     -1.69956518633654
  H   1.96606622000414      0.25465290107448     -1.79350346465555
  C   1.69386395981523      3.27564402783395      0.92536576593705
  O   2.25835647265330      2.71399193736579     -1.16780548349789
  C   2.49011028566453      4.31613834692446      0.37810442169766
  H   1.28580215196855      3.22566563830076      1.92307511609533
  C   2.80906855095703      3.92608712805739     -0.89056546253619
  H   2.79533360270628      5.23190868136016      0.85807580209212
  H   3.38005859609493      4.37309995875971     -1.68697373737030
