19
Coordinates from ORCA-job opt
  C   0.95653774122023      1.01521630500722      0.09119387907427
  N   0.15618306336647      0.68812547913904     -0.96504155675249
  C   1.61023089629183      2.30357897494439      0.03945083122454
  C   1.08425478684101      0.13094012160196      1.13219932220555
  C   -0.58802429213925     -0.48900139362030     -1.10886052528715
  H   0.08802707030220      1.31701699890400     -1.75756256106847
  C   -0.42985644053083     -1.39600766350097      0.00380543602293
  O   -1.27376081593826     -0.66469275532370     -2.11208677897047
  C   0.37668703719381     -1.09159265574952      1.06533946010818
  H   -0.97415994026708     -2.32988971629681     -0.05179312253881
  H   0.47250294596339     -1.80084370994052      1.88070866037584
  H   1.70969794484448      0.38726188600558      1.97498339031456
  C   1.43224369684021      3.41857290500477     -0.74744243138510
  O   2.59818926259381      2.52949424531473      0.94496307058114
  C   2.37357564814057      4.37991290918268     -0.29388826709651
  H   0.70414735142928      3.54515456467222     -1.53371639018077
  C   3.05348856749928      3.79335239723789      0.73415693200869
  H   2.52760667741249      5.37776711938587     -0.67166082386649
  H   3.85132679893636      4.11673398803145      1.38145247523056
