19
Coordinates from ORCA-job opt
  C   0.91700389385583      1.03492247162784     -0.09291321644255
  N   -0.13598854684816      0.82986855341646      0.75210809112978
  C   1.53445616154537      2.34659317776701     -0.05374622051396
  C   1.31085037773279      0.02654056403056     -0.93263086123794
  C   -0.85824550777288     -0.36061888958608      0.90157164487997
  H   -0.45940290649145      1.59654758894314      1.33328355024670
  C   -0.41465882213328     -1.40194965380986      0.00378316512662
  O   -1.77256036363225     -0.43083476054260      1.71793868094570
  C   0.61571430796706     -1.20450028324127     -0.87335951735254
  H   -0.94783276704053     -2.34257997650524      0.05505030390272
  H   0.91459105187978     -2.01234572895924     -1.53292755516080
  H   2.14360837288701      0.18637047155379     -1.60256272588182
  C   1.92042942688323      3.16103529327346      0.98441599812216
  O   1.96474485715324      2.86484725145993     -1.23585899889830
  C   2.60395090957147      4.25839464718818      0.39665874198311
  H   1.75058643421915      2.97366845779433      2.03353202202646
  C   2.60737840530189      4.02846680680752     -0.94933238364286
  H   3.04604905116226      5.10398817214204      0.89846144230624
  H   2.98822466375946      4.57268583664001     -1.79727216153867
