19
Coordinates from ORCA-job opt
  C   0.96335850650735      1.00227422208197     -0.07857815550471
  N   -0.27832019744508      0.93455463920058      0.48910273141994
  C   1.63802899478922      2.29905750531198     -0.04629521682294
  C   1.51251652092760     -0.12625313705685     -0.62219800391767
  C   -1.09074759624775     -0.20212728477578      0.57232523653772
  H   -0.67871351746252      1.77383376223451      0.89616064861606
  C   -0.47756701498212     -1.37283906584086     -0.01480434678395
  O   -2.19436415650224     -0.14093850839163      1.10625901965041
  C   0.76471208353596     -1.32965357492426     -0.58187256627062
  H   -1.05545747713573     -2.28759852341604      0.02097308886414
  H   1.18714498265244     -2.23250253658535     -1.00977499805297
  H   2.49505910960171     -0.07370445691318     -1.06947611515848
  C   2.50503509619255      2.87575857291368      0.84416997033654
  O   1.35157849381810      3.17764964319665     -1.05254030670394
  C   2.77844286695645      4.18149711457228      0.35094237703818
  H   2.89164132051838      2.40664209167626      1.73513504320596
  C   2.05446428180332      4.31234234530611     -0.79889047186235
  H   3.42427402207221      4.92796268620546      0.78439022141202
  H   1.93781368040016      5.10514350520446     -1.51882915600336
