19
Coordinates from ORCA-job opt
  C   0.92318036007140      1.03247334625806      0.10954717958355
  N   -0.06531986506246      0.80428778815741     -0.80403518367855
  C   1.55746025275595      2.33226784301164      0.06676286310093
  C   1.25668710996219      0.04336019816649      0.99846937237511
  C   -0.78573305372733     -0.38553497074860     -0.96549250264074
  H   -0.35242373766777      1.55398033813754     -1.42443772349651
  C   -0.40823763596406     -1.40517217404533     -0.01451713838525
  O   -1.64627781450811     -0.47213330530881     -1.83690279589564
  C   0.56202465285893     -1.18657310645400      0.92408469034098
  H   -0.94149946732149     -2.34503938740402     -0.07669612112031
  H   0.81297897998187     -1.97723903051686      1.62329174376485
  H   2.04287055897075      0.21779260685309      1.71889561907025
  C   1.78433582069487      3.22774744624924     -0.95252636251579
  O   2.13654191339288      2.77712656139536      1.21340563571016
  C   2.53505630733571      4.29196114429475     -0.38655359918432
  H   1.47644291663375      3.11774394037403     -1.98096526977560
  C   2.72549955118575      3.96890309030296      0.92619279507841
  H   2.89687038283739      5.17816945699189     -0.88249119168659
  H   3.21844476756979      4.45697821428518      1.75016798935506
