19
Coordinates from ORCA-job opt
  C   0.93250498475150      1.02286706909997      0.12141442893963
  N   0.89710123994997      0.32899126384568     -1.05268873665981
  C   1.61103544743021      2.30291368605633      0.11271960433013
  C   0.28403360232523      0.52109294357573      1.21978617744088
  C   0.27047387482205     -0.90521896121888     -1.26415807466369
  H   1.38476653855290      0.70234475359707     -1.86102588620132
  C   -0.41684164947597     -1.39627814471935     -0.09156304302968
  O   0.33142694017556     -1.44992542004232     -2.36247694699089
  C   -0.40638685584075     -0.70695762526851      1.08920628797613
  H   -0.93681193626362     -2.33976293255282     -0.19699064190371
  H   -0.92858309266481     -1.11438559517657      1.94842350975953
  H   0.32972118934782      1.05705592769674      2.15752158886704
  C   1.33483748949101      3.51367554384962      0.69819152673910
  O   2.68771127814063      2.42252009252951     -0.71652131722158
  C   2.32107085445573      4.41961281968933      0.22482360495416
  H   0.51448583407674      3.71683352985330      1.36811422133945
  C   3.11316626689674      3.71260749000493     -0.63340147749819
  H   2.42774248557154      5.46364358360858      0.47168190575864
  H   3.97744650825751      3.95947297557163     -1.22685773193581
