19
Coordinates from ORCA-job opt
  C   0.95994991461602      1.01282326773526     -0.08056058699540
  N   0.24962428318410      0.63247742552651      1.02163680138179
  C   1.63164777930764      2.29297888013134     -0.00796643055820
  C   1.00443079830070      0.18222560771138     -1.17018043985022
  C   -0.50125041425429     -0.54150605707250      1.15868850544087
  H   0.26403731591222      1.21983837434138      1.84891366966691
  C   -0.43345635615308     -1.39145669867741     -0.00736536569526
  O   -1.11314612444394     -0.76480706625655      2.19941160000427
  C   0.29516572363710     -1.04026227346605     -1.11005792361214
  H   -0.97940416245435     -2.32474187450704      0.04291285861806
  H   0.32350666824638     -1.70927473559908     -1.96365787503216
  H   1.56144928064457      0.48227902482967     -2.04613339895977
  C   1.31926606858625      3.47560842308969      0.62104763353730
  O   2.74798446402300      2.45138956754586     -0.76771960244856
  C   2.31895310855022      4.40722135624361      0.23469089292117
  H   0.46406858441838      3.65506091473357      1.25432962937720
  C   3.15776272346343      3.73858987494394     -0.60995812225939
  H   2.40612270721902      5.43983467783446      0.53193945384005
  H   4.05219063719660      4.01282131091193     -1.14377229937654
