19
Coordinates from ORCA-job opt
  C   0.96262055015603      1.00709993730675      0.06144806452823
  N   -0.38906741298937      1.00822411479651     -0.11969851749460
  C   1.63098528230659      2.29082143297845      0.05547883482973
  C   1.62122760142321     -0.18754279051510      0.20256867893781
  C   -1.21854574109617     -0.11928184675806     -0.16260551791861
  H   -0.87236258510477      1.89584015056185     -0.21539669112956
  C   -0.49068849014844     -1.36002457461539     -0.02907231690146
  O   -2.43031676549029      0.01066305066025     -0.30958155391123
  C   0.86586427570868     -1.38132594285251      0.14340546587034
  H   -1.07546423780473     -2.26998011750312     -0.06890325529268
  H   1.37439758873239     -2.33396771986607      0.24762938514582
  H   2.68875704598792     -0.19467988467473      0.37260188814395
  C   2.90771432617992      2.68764838520918     -0.26042291427041
  O   0.86781716523724      3.37985267989212      0.35581794819484
  C   2.93085101383724      4.10052075804809     -0.12354831664952
  H   3.71381124411196      2.04062210638477     -0.56777198686384
  C   1.67066709500323      4.47365974530257      0.24631676619157
  H   3.76533244780608      4.76310544474954     -0.28778945807687
  H   1.20530059614325      5.41984607089490      0.46572449666649
