19
Coordinates from ORCA-job opt
  C   0.86390899216340      1.05977028463502     -0.08163969638641
  N   1.00333588363046      0.26227940603705      1.01533412187270
  C   1.55032561605542      2.33339363072183     -0.06351603634711
  C   0.09027453447370      0.62893264305551     -1.12985443176358
  C   0.42549812672369     -1.00009395331785      1.20085556934408
  H   1.57983594310749      0.58273437227518      1.78696210529020
  C   -0.38777999396427     -1.41811930331349      0.08316818742397
  O   0.63337374132499     -1.62693386789534      2.23565248905027
  C   -0.54095922008399     -0.63082972050697     -1.02496135600653
  H   -0.86706380682812     -2.38489907996639      0.16740954199528
  H   -1.15783644121311     -0.98159424938728     -1.84561733160720
  H   -0.01812222830551      1.24663285811059     -2.01015681062142
  C   1.54169650092946      3.42860383122325     -0.89449096321565
  O   2.39170995295515      2.55627178062695      0.98471040045492
  C   2.43445749857214      4.37075643407775     -0.32115489354504
  H   0.96050392590240      3.53942631680812     -1.79591056929300
  C   2.92372523228414      3.79810673491671      0.81759475430988
  H   2.68432274713186      5.35047915569361     -0.69544316848747
  H   3.61769299514071      4.11618172620574      1.57725908753210
