19
Coordinates from ORCA-job opt
  C   0.97187720265401      1.00007008501796      0.13564506847426
  N   -0.31901856516559      0.98610202127047     -0.31137385984497
  C   1.66512465180761      2.28102748579486      0.11765222667059
  C   1.57154117433581     -0.17792545032792      0.49044956308217
  C   -1.14640747885798     -0.13831566637452     -0.41339876603434
  H   -0.75869598628843      1.86119980980972     -0.57841624922868
  C   -0.47789754222857     -1.36383809303846     -0.03583139884905
  O   -2.30468797124471     -0.02409571522277     -0.80278520882520
  C   0.81985574498645     -1.37495630846750      0.39142107485964
  H   -1.06110748523750     -2.27283599593466     -0.11002777132060
  H   1.28195323341228     -2.31673151249989      0.66773773895485
  H   2.59158264822200     -0.16536805580161      0.84787079002672
  C   2.70925357624154      2.76110252341865     -0.63027058577152
  O   1.11361104530729      3.29486439683372      0.84930279501779
  C   2.83419242761708      4.13988406289660     -0.30707413291648
  H   3.30133333151411      2.18287968621550     -1.32192873681986
  C   1.84172599646076      4.41298266756305      0.58940524337116
  H   3.55430383368904      4.84402149116734     -0.69170511375606
  H   1.54036016277481      5.30103156767945      1.11952632290958
