19
Coordinates from ORCA-job opt
  C   0.96304704795743      1.00687385299060      0.02901112129520
  N   -0.39655152787058      1.00984371506096     -0.07369837973602
  C   1.62841825614871      2.29169548058345      0.02481863291627
  C   1.62701964145966     -0.19062223088911      0.11560766290000
  C   -1.22784801433147     -0.11717285910394     -0.09404828633893
  H   -0.88397362470847      1.89848907108750     -0.13065471678365
  C   -0.49568868717744     -1.35960227305949     -0.01562838146715
  O   -2.44538489350527      0.01602207215452     -0.17659113105048
  C   0.86839983337402     -1.38254680711055      0.08331561267409
  H   -1.08203785503825     -2.26914933129264     -0.03635223790267
  H   1.38145666075595     -2.33642947253648      0.14587167010831
  H   2.70295376320614     -0.20364444934923      0.21840161211239
  C   2.93401850400780      2.68202061077550     -0.15494352594856
  O   0.83913414318580      3.38771213544260      0.20577619083723
  C   2.94198425442691      4.09837120661800     -0.06680999796323
  H   3.77266020262318      2.02989509575851     -0.33973087753767
  C   1.64903226568475      4.48038707970138      0.14889581314925
  H   3.79045578266271      4.75725355876110     -0.15818869082254
  H   1.16180424713840      5.43170354440732      0.28114690955818
