21
Coordinates from ORCA-job mp2_opt
  C   -0.30036394682202     -0.01456946450487     -0.00759884660653
  C   -1.02000023923711      1.20724279124888      0.14972347191397
  C   -2.38307426103477      1.24101989430488      0.15839132071602
  C   -3.18231336628035      0.04707532783279      0.00687319308254
  C   -1.04423365267234     -1.15489604280725     -0.15809640658452
  C   1.17238229890643     -0.02615726589881      0.00960523806126
  C   1.91293903153354     -1.20305802466020      0.18174642271113
  C   3.29923179813847     -1.14615767952887      0.15404757045152
  C   3.91658332811182      0.08688196357733     -0.03163086746116
  C   3.10728765385828      1.20907485864330     -0.17573236800495
  H   -0.44648806646388      2.11958220055450      0.26251535578701
  H   -2.92488776862107      2.17001653233914      0.28298892006455
  H   -0.61410557774690     -2.13552094916178     -0.31708172669273
  H   1.41613897101185     -2.14827303666604      0.36251538456621
  H   3.88670331082282     -2.04733590160564      0.28759007390737
  H   4.99516807306125      0.18155184049780     -0.05597269396250
  H   3.54618830072966      2.19283403504092     -0.31194829149690
  N   -2.40086895867859     -1.10449916954919     -0.14932303996184
  H   -2.93670531602914     -1.95557551916519     -0.27415527600951
  N   1.77126147834303      1.16608606591587     -0.16217526143375
  O   -4.40762109093099     -0.02986045640755      0.00214582695280
