21
Coordinates from ORCA-job mp2_opt
  C   -0.30131043446171      0.01935830886747     -0.10453817992151
  C   -1.06338371282337      1.13617347813794     -0.54462609310555
  C   -2.42885745945494      1.13427023184594     -0.49729153718889
  C   -3.17357801612112      0.00953365922938      0.01888335635082
  C   -0.98917495409536     -1.04723645930203      0.40635376029636
  C   1.17115193817039      0.02748409387304     -0.07995141618916
  C   1.86194196520592      1.08932789840512      0.51399453021754
  C   3.24948726014376      1.04822844113790      0.56884340893696
  C   3.90222435309466     -0.06479126060756      0.04892960262949
  C   3.13331119871564     -1.09033210206101     -0.49396792989869
  H   -0.54241844953030      1.99916273728296     -0.94921632939332
  H   -3.01081962329433      1.97558941303991     -0.85151761519411
  H   -0.49120537647495     -1.93487555502553      0.77688284021638
  H   1.31088279209588      1.92475358030745      0.93088337056868
  H   3.80771924868583      1.85910771158643      1.02267246411345
  H   4.98218110262440     -0.14515138422640      0.06974580533266
  H   3.60722647692429     -1.98079244670553     -0.89589013126657
  N   -2.34472690870669     -1.03389851502215      0.45082997212444
  H   -2.84458825907240     -1.83156131501732      0.82714637404202
  N   1.79650567725010     -1.06155278504805     -0.56292919136275
  O   -4.39497081887572     -0.09135873069796      0.10291693869175
