21
Coordinates from ORCA-job mp2_opt
  C   -0.30082332717296      0.06568247391106     -0.00790288395663
  C   -1.06794418854104      1.26002297403068      0.10979065710936
  C   -2.43309012715704      1.24199071235469      0.11462743878576
  C   -3.18424529477157      0.01397165614321      0.00296204166476
  C   -1.00187210108094     -1.10892612750950     -0.09972854007690
  C   1.17227714773255      0.04004702913585     -0.01208235425755
  C   1.93465438330941      1.20801840489606     -0.12754283694521
  C   3.32135589852356      1.12244419454577     -0.11005928852869
  C   3.91500895085215     -0.12772446085017      0.01529588125136
  C   3.08325958390450     -1.24035699155036      0.11264441078478
  H   -0.56623916580232      2.21501682893881      0.21802937750236
  H   -3.00942524001441      2.15319570699788      0.21210195508988
  H   -0.50307056777825     -2.06581866114544     -0.17952214908334
  H   1.45737313552558      2.17173884050016     -0.24784181844193
  H   3.92508394448182      2.01849705938380     -0.19813308679695
  H   4.99155846856487     -0.24424693311682      0.03507008617514
  H   3.50390383817539     -2.23706780297834      0.20684844197344
  N   -2.35639353620314     -1.11068810761829     -0.09285229694005
  H   -2.85603251445721     -1.98980642002537     -0.16583185060492
  N   1.75026446715872     -1.17079306343469      0.10487856846137
  O   -4.40623375524966     -0.10815131260898     -0.00665875316605
