21
Coordinates from ORCA-job mp2_opt
  C   -0.30099126414599     -0.03278109020860      0.03644903881892
  C   -1.01596636203074      1.04480631753112      0.62965833955971
  C   -2.38073186201042      1.07596946017711      0.63827852336188
  C   -3.17436186626107      0.03424215511325      0.02700399169925
  C   -1.03324296057401     -1.00988467232636     -0.57716782802066
  C   1.17476167209168     -0.03558683512220     -0.01334930371256
  C   1.91429921669494     -0.99632433796579      0.68229492875278
  C   3.30336506154443     -0.94370386846915      0.63952976404986
  C   3.90561075135555      0.08380846955821     -0.07765712798785
  C   3.08962334840194      1.01757676169203     -0.71217887838271
  H   -0.45125989815637      1.85341559066827      1.08260673815428
  H   -2.92703029464984      1.88907050678153      1.09924168257088
  H   -0.58045704355595     -1.84668074431384     -1.09601309103171
  H   1.39803713583074     -1.76459975474416      1.24647215080511
  H   3.90060487180527     -1.67873597074310      1.16696599292929
  H   4.98346958346729      0.17200958183840     -0.13792875670687
  H   3.52532476638093      1.84261486782839     -1.26763752339414
  N   -2.39185617338316     -0.96312015291199     -0.56676370607200
  H   -2.92615900567390     -1.69180864798056     -1.02571362962082
  N   1.75212322176536      0.97634229648086     -0.68591553483740
  O   -4.40031889889669     -0.03135593288345     -0.01257977093524
