21
Coordinates from ORCA-job mp2_opt
  C   -0.30040579143383      0.03650861146199      0.06287892769699
  C   -1.05840194797715      1.19067002759958      0.40468122281372
  C   -2.42393290328860      1.18457187118450      0.37773157198471
  C   -3.17556521310081      0.01412542168873     -0.01085910320124
  C   -0.99679270562769     -1.08074092293484     -0.31289526584470
  C   1.17003813732327      0.02695412394412      0.04664087549380
  C   1.88942598949475      1.14341032829359     -0.39456516982534
  C   3.27725382995620      1.08960446377503     -0.41870810973304
  C   3.90510509725340     -0.08600351197668     -0.02081220354187
  C   3.11049272871762     -1.15889401207404      0.37409007433259
  H   -0.53740435801579      2.08883221478252      0.72252876503179
  H   -3.00093672737654      2.05673966200592      0.65762686214551
  H   -0.50131344164830     -2.00311068217944     -0.58888761880487
  H   1.36397297910451      2.03094527273351     -0.72733323368252
  H   3.85537776234659      1.94258701103363     -0.75522345305185
  H   4.98438032054803     -0.17732137998731     -0.02188416391175
  H   3.56363959196947     -2.09757874179776      0.67856860070127
  N   -2.35209223070164     -1.07064075468461     -0.33879411029933
  H   -2.85636834617639     -1.90434054032161     -0.61882492712277
  N   1.77402307479774     -1.11850751432761      0.41391754325386
  O   -4.39783084616484     -0.09342894821921     -0.06756708443495
