21
Coordinates from ORCA-job mp2_opt
  C   -0.30072436307981     -0.01892494045099     -0.00908179030971
  C   -1.01879297193646      1.20912187555087      0.10360819071107
  C   -2.38170933245094      1.24658972816744      0.11075667011734
  C   -3.18402256365468      0.05011982263541      0.00446442246827
  C   -1.04836104158516     -1.16223750291565     -0.11210403626664
  C   1.17292928653624     -0.03030586695657      0.00979793013732
  C   1.91756388766417     -1.21127126381688      0.12942509651132
  C   3.30357548633253     -1.14918110865229      0.10777648223367
  C   3.91845721747793      0.09205171212652     -0.02381105243254
  C   3.10597915720840      1.21646636992084     -0.12332287281094
  H   -0.44341089916446      2.12360833655441      0.18332457402881
  H   -2.92074582138090      2.18129147030423      0.19960491478238
  H   -0.62345535136610     -2.15104649117231     -0.22670540053973
  H   1.42623526288944     -2.16712238603965      0.26140743578391
  H   3.89281722878382     -2.05429713233310      0.20084919828596
  H   4.99681945935315      0.19033553751496     -0.04292453880289
  H   3.54171296535406      2.20632791544374     -0.21961419640560
  N   -2.40482425982644     -1.10814174049127     -0.10554952594106
  H   -2.94222994377327     -1.96287644209514     -0.19311547692614
  N   1.77017830445594      1.16877493058793     -0.11247406330879
  O   -4.40946170783743     -0.02436582388248      0.00154303868398
