21
Coordinates from ORCA-job mp2_opt
  C   -0.30092316963897      0.06792062074998     -0.00778957184553
  C   -1.07050809190815      1.26493191573343      0.05613311585730
  C   -2.43557742634805      1.24536754535777      0.06047340630290
  C   -3.18545588568735      0.01304294058279      0.00248215363826
  C   -1.00142355892431     -1.10991862246086     -0.05318487701961
  C   1.17281721656682      0.04223764353096     -0.01020478277913
  C   1.93802627336068      1.21253752064170     -0.06850922127125
  C   3.32457975650277      1.12357526265916     -0.05601498631950
  C   3.91631143934678     -0.13183929492034      0.01080461167772
  C   3.08224453268364     -1.24594734810573      0.05902801770416
  H   -0.57252754202585      2.22590538606997      0.11482044477234
  H   -3.01274100815269      2.15972169166596      0.11321597290205
  H   -0.50146255894140     -2.06856472151726     -0.09467127888614
  H   1.46477952030084      2.18318175936520     -0.13456742370979
  H   3.92955045642577      2.02202751767336     -0.10040681940460
  H   4.99266350938015     -0.25099722044703      0.02404275217097
  H   3.50083063309434     -2.24669965982157      0.10895079729006
  N   -2.35593860522544     -1.11314366059844     -0.04763332751282
  H   -2.85398907419056     -1.99541659674855     -0.08416052399978
  N   1.74961716649044     -1.17338610028743      0.05193365184223
  O   -4.40728458310943     -0.11092257912306     -0.00153611140982
