21
Coordinates from ORCA-job mp2_opt
  C   -0.30110811093550     -0.02296222129512     -0.00650772185529
  C   -1.01768240266409      1.20988992180342      0.05417084314509
  C   -2.38047416772242      1.25071073464082      0.05821379684893
  C   -3.18551698972903      0.05295873942137      0.00198349428305
  C   -1.05200941751689     -1.16766166142804     -0.05963857367862
  C   1.17338136498449     -0.03424714466501      0.00711971150211
  C   1.92144857753584     -1.21749031891471      0.06958011165315
  C   3.30722317650353     -1.15100231099957      0.05663714017305
  C   3.91986647311431      0.09630690049445     -0.01383482464482
  C   3.10464614987159      1.22169796434822     -0.06533103350446
  H   -0.44076641555228      2.12577045050017      0.09660501847018
  H   -2.91699474578807      2.18986273522615      0.10562228308876
  H   -0.63164282953806     -2.16283919607406     -0.12219140172451
  H   1.43459219740471     -2.18170401905567      0.14266131212642
  H   3.89804084307934     -2.05857507244360      0.10534844413413
  H   4.99803894699249      0.19780130176470     -0.02535484984618
  H   3.53767186923800      2.21608512181619     -0.11666379036503
  N   -2.40832398200922     -1.11022211444084     -0.05622387546426
  H   -2.94713929657264     -1.96730347566783     -0.10260428872164
  N   1.76902679527732      1.17003668179972     -0.05852214372988
  O   -4.41106903597343     -0.01927801683076      0.00029234810982
