21
Coordinates from ORCA-job mp2_opt
  C   -0.29911548361659     -0.00313157228482      0.01334500714098
  C   -1.02438878485584      1.18225411687123      0.32769995457027
  C   -2.38811950128665      1.20251828952956      0.33690948151705
  C   -3.17552054093722      0.03435437468476      0.01393255310674
  C   -1.02809342254069     -1.11256042304629     -0.32073025857055
  C   1.17106119438253     -0.01392319992991      0.00519334584498
  C   1.89899316888591     -1.15232303098848      0.37208617140233
  C   3.28646815582335     -1.11340693715907      0.32815965430163
  C   3.90843149483866      0.06983839215047     -0.05699805893371
  C   3.10781919231563      1.16450544367921     -0.37120024708966
  H   -0.45929756085144      2.07731840207870      0.56228383064826
  H   -2.94020528913635      2.09948539021956      0.58730779314521
  H   -0.57651888616399     -2.04902606589061     -0.62588282029971
  H   1.38219279361896     -2.04287021539471      0.71039825116807
  H   3.87039317253592     -1.98266336398462      0.60816713858426
  H   4.98751097840142      0.15187651286388     -0.10018603436103
  H   3.55592345185501      2.11115575577294     -0.65768712830332
  N   -2.38552897426203     -1.07488918293718     -0.31370160578562
  H   -2.91511055577557     -1.89914961601221     -0.57286497898539
  N   1.77101744716491      1.13792563482672     -0.34583409691561
  O   -4.40038505039594     -0.05097170504914     -0.00041095218519
