21
Coordinates from ORCA-job mp2_opt
  C   -0.30244103033291     -0.02760026132100      0.03184096753278
  C   -1.01946165161702      1.00240963007848      0.70118094379963
  C   -2.38484482811840      1.03293216606531      0.70852532587109
  C   -3.17622459772944      0.03486533336328      0.02633439878099
  C   -1.03274746420601     -0.96642774621085     -0.63998230124772
  C   1.17621444877970     -0.03191515046567     -0.00902214231848
  C   1.91013199935605     -0.90268869366025      0.80048057418337
  C   3.29974306511658     -0.85604785196253      0.76083096415198
  C   3.90722032645483      0.07305700207355     -0.07609850176191
  C   3.09625840641170      0.91755006450327     -0.83048392489405
  H   -0.45838276469273      1.77792660526073      1.21330787772674
  H   -2.93233533500667      1.81268018182614      1.22276344307230
  H   -0.57878688464383     -1.77001408655486     -1.20772116080478
  H   1.38911820692970     -1.60008416402240      1.44640209309289
  H   3.89283046765060     -1.52314954679121      1.37603862280660
  H   4.98557847835851      0.15133610537607     -0.14173939244618
  H   3.53635894930572      1.66213075920618     -1.48701675089766
  N   -2.39164336654127     -0.92190110635880     -0.62778953950259
  H   -2.92434915617824     -1.62280716369302     -1.12994803581612
  N   1.75809643369091      0.88260953323191     -0.80565190533013
  O   -4.40224270298781     -0.02769760994432     -0.02110255599877
