21
Coordinates from ORCA-job mp2_opt
  C   -0.30043368957817      0.05846243136641      0.01013226587775
  C   -1.06281900906182      1.24405316937569      0.21086579677847
  C   -2.42815514020007      1.22991839830570      0.20758867471550
  C   -3.18122806247308      0.01533951631451     -0.00004763139323
  C   -1.00161224127951     -1.10411044916272     -0.17675201218080
  C   1.17109738841320      0.03477661501186      0.00294496352124
  C   1.92331722725208      1.19300236892416     -0.22374644715324
  C   3.31049009481907      1.11691863982141     -0.21347933403644
  C   3.91174179272409     -0.11639090388631      0.00943765306227
  C   3.08852044842564     -1.22226402711248      0.20574941207553
  H   -0.55312573587806      2.18306537773719      0.39841796966534
  H   -3.00358291411628      2.13163508224723      0.37410864487673
  H   -0.50474900495181     -2.05401639946322     -0.32512846429612
  H   1.43301105709951      2.13680057393848     -0.42650408274419
  H   3.90882426508397      2.00415228400847     -0.38636665152325
  H   4.98909825700862     -0.22564538907984      0.02730133711521
  H   3.51701596265646     -2.20571170061798      0.37436462937226
  N   -2.35633020418278     -1.10219206746043     -0.17698889344747
  H   -2.85897535216532     -1.97069048979367     -0.32151283655345
  N   1.75430708747923     -1.16112923807578      0.21059730466477
  O   -4.40350722707496     -0.10204179239867     -0.02519529839689
