21
Coordinates from ORCA-job mp2_opt
  C   -0.30064562955634      0.06256941760972     -0.00099543765526
  C   -1.06527079718847      1.25300545446547      0.16103688257405
  C   -2.43052317627527      1.23678077002700      0.16286913864536
  C   -3.18279467718785      0.01476063533902      0.00191273083863
  C   -1.00193727091122     -1.10695792162674     -0.14017386800662
  C   1.17166606103222      0.03748072173033     -0.00658007097287
  C   1.92971032018912      1.20142416465358     -0.17804102660317
  C   3.31662590191195      1.12021343255340     -0.16225253316212
  C   3.91343666187316     -0.12251016462676      0.01407971583070
  C   3.08528397037812     -1.23237896914473      0.16101064780197
  H   -0.55951306689311      2.20047503697517      0.31124980194905
  H   -3.00627346578324      2.14363152978964      0.29733442336218
  H   -0.50417689023577     -2.06088120437895     -0.25527269134017
  H   1.44662429741613      2.15598887698759     -0.34257320125242
  H   3.91818297051572      2.01246297514101     -0.29314506695460
  H   4.99033447226610     -0.23568017675731      0.03447260457513
  H   3.50926562965856     -2.22321944746409      0.29409558421209
  N   -2.35653155407926     -1.10700622068007     -0.13570572879967
  H   -2.85779297245640     -1.98145861281932     -0.24475864793883
  N   1.75172707523714     -1.16668493844322      0.15812833612387
  O   -4.40494585991130     -0.10514435933073     -0.01494059322731
