21
Coordinates from ORCA-job mp2_opt
  C   -0.30130244631290      0.01934641002246      0.10454914224630
  C   -1.06335374949121      1.13618897566903      0.54459737124219
  C   -2.42882693996204      1.13431329659167      0.49724841609925
  C   -3.17357060368613      0.00957975044647     -0.01889471476914
  C   -0.98918735778946     -1.04724648087054     -0.40632455151894
  C   1.17115673460672      0.02743182686409      0.07997983712968
  C   1.86198135057067      1.08924807914859     -0.51397684911785
  C   3.24952450005282      1.04810894693287     -0.56880657764654
  C   3.90223003451855     -0.06491421925882     -0.04886093721395
  C   3.13328683960944     -1.09042378650734      0.49405250266852
  H   -0.54237563383062      1.99917607796821      0.94917359230074
  H   -3.01077840647249      1.97565490028868      0.85143763573306
  H   -0.49122037487965     -1.93489964108312     -0.77682250648408
  H   1.31094687397691      1.92467611199095     -0.93089112297608
  H   3.80779162922289      1.85895839783213     -1.02264396637318
  H   4.98218510905638     -0.14528610871792     -0.06966835201332
  H   3.60717253278579     -1.98088691629995      0.89599982497206
  N   -2.34473669433788     -1.03388205146561     -0.45081601688401
  H   -2.84462027140055     -1.83153487399009     -0.82712386326482
  N   1.79647974459204     -1.06160916774520      0.56298995801768
  O   -4.39496587082930     -0.09128052781657     -0.10295782214757
