21
Coordinates from ORCA-job mp2_opt
  C   -0.30170006767798      0.01293499343879     -0.10910687505613
  C   -1.06368658977607      1.11297466160109     -0.58936329779156
  C   -2.42927878646024      1.11357591150563     -0.54067668018040
  C   -3.17392666627710      0.00978348756868      0.01880012186932
  C   -0.98916089983829     -1.03225873230026      0.44382754759560
  C   1.17199705571160      0.02571306394087     -0.08267628152026
  C   1.85482096884455      1.06327343839329      0.56084222666222
  C   3.24247932740677      1.02702224960781      0.61900188042021
  C   3.90267740220477     -0.05765692085164      0.05091894521023
  C   3.14121622544151     -1.06105731054291     -0.54141676720029
  H   -0.54185501499274      1.96065368746698     -1.02411151822246
  H   -3.01110842877498      1.94183759873692     -0.92469551567728
  H   -0.49253645572752     -1.90552470661198      0.84896558861326
  H   1.29676380894894      1.87669550588572      1.01077186467526
  H   3.79493131586277      1.81933091156124      1.11110901656154
  H   4.98294564396328     -0.13354388474693      0.07223256270098
  H   3.62118648485634     -1.92966576747602     -0.98207279194238
  N   -2.34502200029583     -1.01662511540536      0.48928308134469
  H   -2.84479253141295     -1.79898541708975      0.89656361203771
  N   1.80412175800010     -1.03674983571573     -0.61299189496343
  O   -4.39528255000693     -0.08690381896645      0.10882817486315
