21
Coordinates from ORCA-job mp2_opt
  C   -0.30099377798566      0.02547593165957     -0.09323400843170
  C   -1.06185299969069      1.15632448915352     -0.49871385669117
  C   -2.42732077370277      1.15259413287298     -0.45671508495142
  C   -3.17388377756105      0.01044671082110      0.01685250816445
  C   -0.99114111469036     -1.06004177441017      0.37377878447928
  C   1.17052651099563      0.02767343209843     -0.07129802116408
  C   1.87070642408533      1.11028803875416      0.47251166485975
  C   3.25833854130281      1.06483866453761      0.51912769195939
  C   3.90267303496822     -0.07182588704322      0.04168227584450
  C   3.12518515518545     -1.11562228520251     -0.45227047600644
  H   -0.54079572935127      2.03220216124203     -0.87430627032241
  H   -3.00809770877502      2.00515098818379     -0.78503414057997
  H   -0.49340112050486     -1.96050074266307      0.71195546832029
  H   1.32781107845221      1.96469410284331      0.86039056728617
  H   3.82328267161365      1.89153615748032      0.93445009762737
  H   4.98241648612300     -0.15602657941479      0.05774610167394
  H   3.59229024124048     -2.02419660088128     -0.82022126756021
  N   -2.34655714610644     -1.04816631082871      0.41360775315176
  H   -2.84771731067436     -1.85918278502015      0.75832290664938
  N   1.78847078268336     -1.08290985080612     -0.51362493317651
  O   -4.39554546760767     -0.09329299337681      0.09253423886762
