21
Coordinates from ORCA-job mp2_opt
  C   -0.30021897910760      0.04192290494515      0.04818863898128
  C   -1.05794178437268      1.20585315409737      0.35714720071494
  C   -2.42345474007671      1.19835480421658      0.33711192222583
  C   -3.17676630003079      0.01549502775654     -0.00805307961904
  C   -0.99900300590552     -1.08891162708120     -0.28069354655071
  C   1.17007264272779      0.02758529565222      0.03432160035974
  C   1.89840182617165      1.15761609630656     -0.35457231711675
  C   3.28618345538457      1.09915330995548     -0.36785188480173
  C   3.90663800331019     -0.09329643957459     -0.01119935033924
  C   3.10418221533257     -1.17764972444795      0.33361703991831
  H   -0.53835541487948      2.11462717976647      0.64494587624857
  H   -2.99915547442275      2.07921161300331      0.59130225837168
  H   -0.50409941925846     -2.02022831691344     -0.52536713518348
  H   1.38177550388324      2.06039729655935     -0.65818854249020
  H   3.87007302313553      1.96308985976910     -0.66403522200295
  H   4.98553923305823     -0.18850622622511     -0.00532133739045
  H   3.55073181082804     -2.12945949096593      0.60536450856180
  N   -2.35419607941408     -1.08019888941029     -0.29943958880541
  H   -2.85912713999457     -1.92390156092264     -0.54642710175847
  N   1.76807548610691     -1.13279411916620      0.36322479091389
  O   -4.39918086247610     -0.09398314732078     -0.05614773023761
