21
Coordinates from ORCA-job mp2_opt
  C   -0.30347053181715      0.00174449428678     -0.05530064749761
  C   -1.04657397578633      1.01469825665421     -0.72060682999957
  C   -2.41310570452134      1.02775709364367     -0.70357105341305
  C   -3.17821988926892      0.02290093770120     -0.00293506181486
  C   -1.00971643467230     -0.95300799347252      0.62025685500809
  C   1.17620027242916      0.00554549684998     -0.03542158899316
  C   1.86233676469337      0.87344831166426      0.81883475168678
  C   3.25239760047559      0.85270138866138      0.83268106731835
  C   3.90937062254684     -0.04382750706662     -0.00318335538171
  C   3.14451400950362     -0.88104895325755     -0.81074206211515
  H   -0.50798209945959      1.78721186762076     -1.26148678758018
  H   -2.97963682420239      1.79379894619475     -1.21779530327707
  H   -0.53415210093485     -1.76321172097238      1.15980772131522
  H   1.30401597244392      1.54852241718802      1.45748872587372
  H   3.80835649570130      1.51521341006414      1.48629542812203
  H   4.99074345296972     -0.09995801314521     -0.02962083131637
  H   3.62367618770826     -1.59812212057512     -1.47052129955711
  N   -2.36822149086944     -0.92842401729761      0.62850205528007
  H   -2.88242193954836     -1.64524021449373      1.12775528014921
  N   1.80505944375964     -0.87132599787445     -0.83774679522476
  O   -4.40211383115077     -0.05145708237395      0.07503573141711
