21
Coordinates from ORCA-job mp2_opt
  C   -0.30309232343800     -0.00085648859644      0.07967178189986
  C   -1.05347045660986      1.03301496577801      0.70335071332421
  C   -2.41982350883408      1.04429385335069      0.67305876052859
  C   -3.17732324832458      0.01863522999004     -0.00509049505441
  C   -1.00233665247284     -0.97227117609975     -0.57996173303163
  C   1.17530437552694      0.01120401839843      0.05522701483117
  C   1.85301131345300      0.94201069971562     -0.73802478239939
  C   3.24244205928258      0.92027334309547     -0.77113415450077
  C   3.90788355804639     -0.04284866152317     -0.02000484546701
  C   3.15123666662953     -0.94354427082124      0.72440823748539
  H   -0.52090492641236      1.82248580354716      1.22552488696980
  H   -2.99189553784624      1.82460953633751      1.15887380169791
  H   -0.51989354250116     -1.79515441588070     -1.09352967919231
  H   1.28864161105520      1.66498388244737     -1.31616984636876
  H   3.79167676793515      1.63099471865636     -1.37810388602996
  H   4.98933333669567     -0.10281915587940     -0.01256820002813
  H   3.63670099771933     -1.71502585515047      1.31447535133661
  N   -2.36018340685287     -0.94858843668345     -0.60273734155299
  H   -2.86899683861629     -1.67800637907289     -1.08918209078923
  N   1.81228283047995     -0.93309340461540      0.77012435662313
  O   -4.40031407491545     -0.05993280699374     -0.09233785028206
