21
Coordinates from ORCA-job mp2_opt
  C   -0.30358110589252      0.00784486751669      0.02855975411134
  C   -1.03885865349170      1.03984697659660      0.67333010396692
  C   -2.40536262317037      1.05465221427255      0.66860061819840
  C   -3.17871802057678      0.02900953864828      0.00802108239020
  C   -1.01762311664909     -0.97172138111117     -0.60126123086051
  C   1.17706861592305     -0.00110872451714      0.01526323521574
  C   1.87478238363668      0.73687352353204     -0.94484651095991
  C   3.26518357221100      0.71627065184046     -0.93709689839218
  C   3.91034825266159     -0.04496692487907      0.03134544381353
  C   3.13445140752730     -0.75192685996080      0.94620221790793
  H   -0.49391652620330      1.82730906322658      1.18531125951226
  H   -2.96590675500466      1.83757853627995      1.16358829682494
  H   -0.54935288313648     -1.80275148146791     -1.11496017771668
  H   1.32513413877948      1.31312435610901     -1.68040973118574
  H   3.83039787416017      1.27877866984800     -1.67148277855289
  H   4.99127380741595     -0.09465694171529      0.08039039815575
  H   3.60443572131310     -1.35866721075027      1.71434507689976
  N   -2.37653682765614     -0.94534848269657     -0.59714738041194
  H   -2.89659959088721     -1.67948001526233     -1.06399945885096
  N   1.79488319637089     -0.74148924634233      0.95258647221726
  O   -4.40345186733094     -0.04501412916728     -0.05613379228322
