21
Coordinates from ORCA-job mp2_opt
  C   -0.30312854927194     -0.01589255556038     -0.02533399608865
  C   -1.02389059312905      1.00734668663484     -0.70051047986346
  C   -2.38966930020829      1.03344811777613     -0.70758551936073
  C   -3.17739535518432      0.03379363443349     -0.02379130911650
  C   -1.03016195855655     -0.96060009561215      0.64150813130009
  C   1.17676576635476     -0.02363657435553      0.00609070890460
  C   1.90248887708373     -0.81215120935598     -0.89034983604734
  C   3.29247238345820     -0.77576789582588     -0.85374666079895
  C   3.90839122284419      0.05804976347907      0.07266862189895
  C   3.10528036866960      0.82034929930901      0.91735560626563
  H   -0.46653130234056      1.78306224145631     -1.21662043285300
  H   -2.93957247020912      1.81023466914451     -1.22372841695192
  H   -0.57361449137962     -1.76473894778769      1.20626085436495
  H   1.37483790004295     -1.43978840319846     -1.59938235380346
  H   3.87935233148900     -1.38029627110441     -1.53593218047309
  H   4.98743108825398      0.12433164107452      0.14045229035904
  H   3.55214630497105      1.48709529059110      1.64871627624343
  N   -2.38919895430393     -0.92117111665766      0.62850621152025
  H   -2.91935062456432     -1.62626678753099      1.12753711655354
  N   1.76657446483401      0.79509875419306      0.89550549306061
  O   -4.40322310885379     -0.03281924110289      0.02414687488602
