21
Coordinates from ORCA-job mp2_opt
  C   -0.30034768010964     -0.01457356501690      0.00759273586862
  C   -1.01997972292279      1.20723952405544     -0.14973871934630
  C   -2.38305359033796      1.24101680050126     -0.15839901200446
  C   -3.18229134271375      0.04708688262643     -0.00685546307577
  C   -1.04422021058142     -1.15489508837774      0.15811769797354
  C   1.17239946748082     -0.02616801564241     -0.00962796733302
  C   1.91294985256251     -1.20307182372331     -0.18176853285056
  C   3.29924389258322     -1.14617628718754     -0.15408858074204
  C   3.91660057589933      0.08686366602412      0.03156885635470
  C   3.10730973801216      1.20906014313832      0.17567030582755
  H   -0.44646403902058      2.11957470986389     -0.26254834971834
  H   -2.92486172429159      2.17001584484716     -0.28300561864665
  H   -0.61409898238226     -2.13552140490107      0.31711397171614
  H   1.41614619726317     -2.14828843581901     -0.36252099931996
  H   3.88670851166510     -2.04735911987322     -0.28763195363996
  H   4.99518597601923      0.18153484783672      0.05589451716429
  H   3.54621439042259      2.19282017003776      0.31186873364021
  N   -2.40085582886021     -1.10448842602454      0.14935496551674
  H   -2.93669413849000     -1.95556051564752      0.27420741493685
  N   1.77128309358582      1.16607590749680      0.16213305965602
  O   -4.40759943578376     -0.02984181421461     -0.00212106197757
