21
Coordinates from ORCA-job mp2_opt
  C   -0.30358959634434      0.00784321378170     -0.02858427242207
  C   -1.03885876166686      1.03982513644744     -0.67339708243141
  C   -2.40536328958983      1.05459176953134     -0.66873677065982
  C   -3.17872459140428      0.02893218752576     -0.00818996355015
  C   -1.01763578959020     -0.97174194909830      0.60120067774651
  C   1.17706048654068     -0.00107226303349     -0.01522149260332
  C   1.87471498313008      0.73691363291200      0.94492700491526
  C   3.26511795184983      0.71634716185312      0.93723620640532
  C   3.91034353433738     -0.04485573421047     -0.03119150353634
  C   3.13450217713245     -0.75181975782979     -0.94609284488249
  H   -0.49390696881143      1.82729801316623     -1.18535098767382
  H   -2.96591027588073      1.83749741365171     -1.16375407277598
  H   -0.54937034863541     -1.80276009229271      1.11492329817271
  H   1.32502643134260      1.31314163915725      1.68047793649689
  H   3.83028097109045      1.27885986316362      1.67165802164092
  H   4.99127178437647     -0.09452159290015     -0.08019960267867
  H   3.60453456967763     -1.35853302181194     -1.71422783057736
  N   -2.37655113633565     -0.94540491434534      0.59702167322456
  H   -2.89661315818406     -1.67955209519293      1.06384914869179
  N   1.79493421754868     -0.74141921418968     -0.95253237347967
  O   -4.40346019058348     -0.04512639628537      0.05589382997714
