21
Coordinates from ORCA-job mp2_opt
  C   -0.30064630370487      0.03104889449414      0.07879461204389
  C   -1.05999247974559      1.17422609402587      0.45202240204953
  C   -2.42544881667292      1.16934688309610      0.41718970847799
  C   -3.17475644686798      0.01214795570496     -0.01385149982550
  C   -0.99393679717064     -1.07108574343720     -0.34320011940559
  C   1.17015785264574      0.02716205628891      0.05950972855417
  C   1.88000012644255      1.12800038609600     -0.43324066560338
  C   3.26773338090658      1.07844323430083     -0.46913523528563
  C   3.90379658981231     -0.07875832237042     -0.03178285338774
  C   3.11763944195955     -1.13821670104963      0.41296413687145
  H   -0.53866982104049      2.06152682852476      0.79895340789635
  H   -3.00422464228882      2.03218166683241      0.72114221217272
  H   -0.49737796711814     -1.98314217054388     -0.65012135816512
  H   1.34560937399746      1.99950142712109     -0.79341531584605
  H   3.83939439954228      1.91904892680566     -0.84537597642601
  H   4.98328694229762     -0.16649364607681     -0.04082059185440
  H   3.57774058401621     -2.06260995321940      0.74885160757407
  N   -2.34931965491449     -1.06018979734561     -0.37651271932751
  H   -2.85208920279179     -1.88312335303795     -0.68912534178593
  N   1.78102938057796     -1.10174338844988      0.46395080865212
  O   -4.39669193988254     -0.09352327775996     -0.08024594737943
