21
Coordinates from ORCA-job mp2_opt
  C   -0.30092711437564      0.06788598679888      0.00776448126327
  C   -1.07049597913383      1.26489957694584     -0.05614234499059
  C   -2.43554119395311      1.24537772989203     -0.06048673170628
  C   -3.18545030246530      0.01307420251021     -0.00260549692376
  C   -1.00144613384841     -1.10993738848002      0.05318807637654
  C   1.17280902621387      0.04221201265656      0.01021001127407
  C   1.93799758013427      1.21252630538977      0.06849022699040
  C   3.32455251891490      1.12357620911839      0.05605913036569
  C   3.91630857109689     -0.13182044362372     -0.01071461698769
  C   3.08226180848998     -1.24594571965584     -0.05893414424342
  H   -0.57248760542204      2.22586034410937     -0.11478642492173
  H   -3.01268989335817      2.15974610395060     -0.11316580196700
  H   -0.50148226289618     -2.06857991205721      0.09471545617812
  H   1.46473887302145      2.18316622951994      0.13449745414143
  H   3.92950153823665      2.02204350971750      0.10044396080865
  H   4.99266241041491     -0.25095559155207     -0.02390074412376
  H   3.50087643183166     -2.24668508934207     -0.10882277706672
  N   -2.35595642030477     -1.11313439009386      0.04760569089529
  H   -2.85403248817639     -1.99539149895126      0.08417435006308
  N   1.74963526682508     -1.17340260214850     -0.05187574076855
  O   -4.40728163124582     -0.11085757470453      0.00162898534297
