21
Coordinates from ORCA-job mp2_opt
  C   -0.30165901735624     -0.03226235392082     -0.03630602518368
  C   -1.01744517298989      1.02089047125078     -0.67047694968421
  C   -2.38249089262489      1.05247862482275     -0.67769880392462
  C   -3.17525077225840      0.03450144355784     -0.02677599489644
  C   -1.03307985488271     -0.98757273213645      0.61104809585111
  C   1.17558350967030     -0.03484502604203      0.01073604356509
  C   1.91405825443237     -0.95578040461923     -0.73728204382381
  C   3.30334027997611     -0.90495747339462     -0.69434365352759
  C   3.90632081588805      0.08037259772332      0.07917404074055
  C   3.09112502648282      0.97559801630528      0.76787638883363
  H   -0.45449725245836      1.81190294166451     -1.15582805988449
  H   -2.92913165785619      1.84829155463494     -1.16754739688493
  H   -0.57983205534692     -1.80641165155082      1.15725744308126
  H   1.39671686918647     -1.69375675966921     -1.33956964567819
  H   3.89988104968778     -1.61018304592091     -1.26177050901671
  H   4.98425556782200      0.16460821415366      0.14374009550776
  H   3.52748986907140      1.76650754113361      1.37044576681013
  N   -2.39186476105156     -0.94128735234656      0.60043556394429
  H   -2.92543343914075     -1.65440078450673      1.08407975888163
  N   1.75338861608740      0.93633447517143      0.74049693919839
  O   -4.40122598233881     -0.02876129631076      0.01767794609084
