21
Coordinates from ORCA-job mp2_opt
  C   -0.30310478044710     -0.00085328681375     -0.07966326782312
  C   -1.05349104183362      1.03297856108108     -0.70340554086352
  C   -2.41984696851148      1.04420303924627     -0.67317705118611
  C   -3.17733178394980      0.01853758470059      0.00498113453087
  C   -1.00233760736919     -0.97228746765097      0.57995001417350
  C   1.17529881215579      0.01125280225395     -0.05517771475047
  C   1.85296551388248      0.94207068429467      0.73809211802480
  C   3.24239830557071      0.92037616400888      0.77123166504722
  C   3.90787402837372     -0.04272378853333      0.02010286723529
  C   3.15126471900208     -0.94343115264603     -0.72433005639073
  H   -0.52093216715379      1.82246012788820     -1.22557269443812
  H   -2.99192418217480      1.82448280903222     -1.15904637626185
  H   -0.51989869830254     -1.79515394165501      1.09355095578491
  H   1.28855907780330      1.66502416963394      1.31622933908582
  H   3.79159941963617      1.63111076756445      1.37821810907970
  H   4.98932668526263     -0.10267911042230      0.01267347084321
  H   3.63675065594153     -1.71489884204669     -1.31440187118810
  N   -2.36018974353074     -0.94865550642835      0.60266293505286
  H   -2.86898990348312     -1.67808841529836      1.08909861734905
  N   1.81231112317859     -0.93302190828058     -0.77007457769287
  O   -4.40032346405082     -0.06008528992888      0.09214692438766
