21
Coordinates from ORCA-job mp2_opt
  C   -0.29955820504640     -0.00668220595853      0.00218523057288
  C   -1.02272717468515      1.19896856522510      0.23937082396861
  C   -2.38614611803339      1.22501659889265      0.24829896210086
  C   -3.17864957535151      0.04027372325634      0.01047585355064
  C   -1.03515850807771     -1.13570446219626     -0.24150731571024
  C   1.17151017253288     -0.01824088470403      0.00857437041200
  C   1.90426534186881     -1.18079241290636      0.27954612841636
  C   3.29112194715190     -1.13460426080089      0.24136712815728
  C   3.91245336857237      0.07668284518223     -0.04589580798507
  C   3.10895161813101      1.18974145569655     -0.27406842576324
  H   -0.45373570194165      2.10480604239494      0.41378221212402
  H   -2.93388145113541      2.13959000404491      0.43708210983520
  H   -0.59349661969202     -2.09592565434811     -0.47798032492083
  H   1.39626207422424     -2.10034133730094      0.54453890047281
  H   3.87564237703481     -2.02346387897425      0.44944196830078
  H   4.99139314028737      0.16389965907776     -0.08074758559433
  H   3.55374231399563      2.15744305199352     -0.48549929500917
  N   -2.39218368241972     -1.09285177233212     -0.23252845940215
  H   -2.92439456173182     -1.93309959450142     -0.42690007732073
  N   1.77249327176345      1.15639896996746     -0.25398148173612
  O   -4.40367802744767     -0.04183245170853      0.00104708553042
