21
Coordinates from ORCA-job mp2_opt
  C   -0.29956373691400     -0.00669045563899     -0.00218700667116
  C   -1.02271790668356      1.19897206316654     -0.23936004221494
  C   -2.38613795578405      1.22503249997945     -0.24827118821736
  C   -3.17864930358207      0.04030797058624     -0.01043970816700
  C   -1.03517592851290     -1.13570210926825      0.24151835523547
  C   1.17150464739873     -0.01827260251693     -0.00859157624804
  C   1.90423980753671     -1.18083373411647     -0.27957096715809
  C   3.29109858851216     -1.13466818132899     -0.24139741837667
  C   3.91245231736675      0.07660842573314      0.04586042044850
  C   3.10896732948248      1.18967878666610      0.27403752807555
  H   -0.45371882841636      2.10480454130934     -0.41377362393035
  H   -2.93386082678571      2.13961559364430     -0.43704483881416
  H   -0.59352408484663     -2.09592955091399      0.47798535335933
  H   1.39622357971064     -2.10037605857897     -0.54456221803494
  H   3.87559950220029     -2.02353951286078     -0.44947622279753
  H   4.99139320769635      0.16381549764260      0.08071084767714
  H   3.55377283168523      2.15737500156055      0.48546324887301
  N   -2.39220026600210     -1.09282812319204      0.23255730590163
  H   -2.92442362498857     -1.93306663621222      0.42693486743429
  N   1.77250851468490      1.15635826054403      0.25396097839719
  O   -4.40367886375828     -0.04178267620467     -0.00099909477190
