21
Coordinates from ORCA-job mp2_opt
  C   -0.30093645828852      0.02538631218674      0.09358709543683
  C   -1.06186976466148      1.15633157294882      0.49871416179220
  C   -2.42728760580478      1.15278998453544      0.45647575446338
  C   -3.17400053032887      0.01056192620388     -0.01699197433484
  C   -0.99109729776166     -1.06000096469997     -0.37351394976089
  C   1.17054949096777      0.02758117008548      0.07149361861416
  C   1.87069400313030      1.11030885795698     -0.47220997652449
  C   3.25829672259767      1.06481386099877     -0.51897504180318
  C   3.90273914354818     -0.07192165752904     -0.04178057791650
  C   3.12527905152436     -1.11573576526613      0.45220904412090
  H   -0.54079622508747      2.03216913964993      0.87428809962218
  H   -3.00788200462763      2.00550894374000      0.78456481565534
  H   -0.49351123675717     -1.96055950159434     -0.71155398580653
  H   1.32767152574781      1.96469316884914     -0.85983875736443
  H   3.82321379790902      1.89149064585684     -0.93427432820244
  H   4.98242860784781     -0.15619397684825     -0.05798284182752
  H   3.59233749843917     -2.02437631771107      0.81991852269066
  N   -2.34653730366480     -1.04810668148717     -0.41357292429795
  H   -2.84763168975206     -1.85915530292278     -0.75827390055546
  N   1.78860237872443     -1.08293919278302      0.51361536991760
  O   -4.39560110370206     -0.09304222217025     -0.09285222391900
