21
Coordinates from ORCA-job mp2_opt
  C   -0.30069025185328      0.03116583921869     -0.07846581890755
  C   -1.05992559941759      1.17430004785133     -0.45203038943030
  C   -2.42544447001151      1.16928208443667     -0.41743399238321
  C   -3.17459891129792      0.01219385155787      0.01381210441598
  C   -0.99397233953211     -1.07108861763027      0.34343008915157
  C   1.17017156800028      0.02724731646582     -0.05944583138371
  C   1.88009980790628      1.12794693882296      0.43341774237537
  C   3.26786659130251      1.07840529666603      0.46911002744176
  C   3.90373537826378     -0.07877380554176      0.03146016953776
  C   3.11750341947436     -1.13818549601474     -0.41320165786031
  H   -0.53862111279542      2.06164586322416     -0.79898204746336
  H   -3.00430569291521      2.03200864500858     -0.72168398935522
  H   -0.49733809108450     -1.98310843741263      0.65046312940482
  H   1.34584104687144      1.99947051348967      0.79388285774484
  H   3.83960831872562      1.91900578797962      0.84536118383098
  H   4.98328087514192     -0.16651115148842      0.04029093937214
  H   3.57756366644634     -2.06255742186367     -0.74937856646618
  N   -2.34933034789855     -1.06012946277620      0.37657563095484
  H   -2.85220223589188     -1.88301441814331      0.68918983556206
  N   1.78084963813012     -1.10176571759127     -0.46409365095327
  O   -4.39659125756468     -0.09365665625915      0.07987823441100
