21
Coordinates from ORCA-job mp2_opt
  C   -0.30021206575953      0.04192287336773     -0.04833855860375
  C   -1.05795894133228      1.20584947257434     -0.35722681617762
  C   -2.42346311942548      1.19835716695258     -0.33711728200130
  C   -3.17678341365459      0.01549082202719      0.00803630686970
  C   -0.99899030350719     -1.08890592604153      0.28054970550743
  C   1.17006542100921      0.02758552523329     -0.03443837984816
  C   1.89838799490733      1.15761865410160      0.35445762756657
  C   3.28616412280225      1.09914707434395      0.36775790503912
  C   3.90664804917876     -0.09329110885540      0.01112716086079
  C   3.10419872925775     -1.17764158327292     -0.33373744223999
  H   -0.53838176856159      2.11462073442700     -0.64503042152939
  H   -2.99918854121358      2.07921130457306     -0.59123901602529
  H   -0.50404633014392     -2.02020567342938      0.52518537467802
  H   1.38177113788379      2.06040417809975      0.65804969759331
  H   3.87004094581238      1.96308176731705      0.66395116529282
  H   4.98554306429703     -0.18848414800827      0.00529928842789
  H   3.55076812562211     -2.12943908374912     -0.60545929087206
  N   -2.35417848110281     -1.08021301201319      0.29935198942918
  H   -2.85909207041671     -1.92392632954890      0.54633771396129
  N   1.76809523128141     -1.13277196747134     -0.36335013604587
  O   -4.39919578693431     -0.09398774062748      0.05617240811730
