21
Coordinates from ORCA-job mp2_opt
  C   -0.30042373270255     -0.03095638280155     -0.03532125190992
  C   -1.01546698926113      1.06947489853983     -0.58554729958101
  C   -2.37999732147922      1.09938081650282     -0.59544408429216
  C   -3.17370140705124      0.03369514422069     -0.02683022946595
  C   -1.03280625800305     -1.03078740421366      0.54111446055467
  C   1.17383991548495     -0.03471217811741      0.01492301370731
  C   1.91294580629022     -1.03009851892798     -0.63130082413614
  C   3.30182560694997     -0.97720819512945     -0.58948983815691
  C   3.90513126054737      0.08488048018144      0.07458827928789
  C   3.08983886867312      1.05116638175837      0.65928151586362
  H   -0.44959389161148      1.89528898609689     -1.00438441138872
  H   -2.92656974162555      1.92902856485836     -1.02554773750068
  H   -0.57991155710869     -1.88520358694131      1.03045699666475
  H   1.39675929975631     -1.82347694611039     -1.15971823322664
  H   3.89854675957993     -1.73803967231118     -1.07956047688645
  H   4.98305376454513      0.17528067705927      0.13001092744758
  H   3.52607370179174      1.90377260014936      1.17099686341526
  N   -2.39122010991362     -0.98466607556459      0.53064244616587
  H   -2.92573484624247     -1.72955691113205      0.96250768069640
  N   1.75253886159079      1.00970522936678      0.63453221639103
  O   -4.39957199021052     -0.03510890748424      0.00754998635020
