21
Coordinates from ORCA-job mp2_opt
  C   -0.30013161002458      0.04760858589240     -0.03504281132341
  C   -1.05870678535958      1.22007621244662     -0.30904650793256
  C   -2.42416166602905      1.21073770305757     -0.29468603220746
  C   -3.17816626480468      0.01611725159501      0.00540048632092
  C   -1.00038809008154     -1.09539439640503      0.24669720996528
  C   1.17026149681723      0.02926739736842     -0.02341641829339
  C   1.90720203692866      1.17070577231834      0.31220861987282
  C   3.29481819830127      1.10663939918852      0.31635825437981
  C   3.90831733687293     -0.10127689500158      0.00318927941389
  C   3.09833005348462     -1.19482136972921     -0.29177222540970
  H   -0.54170094631358      2.13937993214759     -0.56522257246317
  H   -2.99933064178466      2.09952966267747     -0.52086078711337
  H   -0.50515423650184     -2.03413682377626      0.45955486475164
  H   1.39964150071517      2.08824428125455      0.58427276313251
  H   3.88400607313173      1.97992849498110      0.57178322047256
  H   4.98672145134306     -0.20101390093828     -0.00774428785810
  H   3.53851857166896     -2.15860199742561     -0.52949769482711
  N   -2.35541674866890     -1.08869994159541      0.25888548009277
  H   -2.86017046116496     -1.94160928304688      0.47238212341222
  N   1.76277592756849     -1.14463630190486     -0.31263061343080
  O   -4.40060719609875     -0.09561178310446      0.04628364904467
