21
Coordinates from ORCA-job mp2_opt
  C   -0.30073977837825     -0.01894972013348      0.00913091021074
  C   -1.01875492001351      1.20913080889182     -0.10352790389506
  C   -2.38166831173764      1.24666415845726     -0.11069473188013
  C   -3.18403409900771      0.05022861863646     -0.00444013497946
  C   -1.04842876003694     -1.16223114802586      0.11212635161942
  C   1.17291633610521     -0.03038244678660     -0.00975121336176
  C   1.91751748417986     -1.21136349476841     -0.12941452168574
  C   3.30352909549642     -1.14931121542486     -0.10779104140066
  C   3.91844574044781      0.09190264335948      0.02381269320567
  C   3.10599783075225      1.21633440209883      0.12337102029103
  H   -0.44334427759599      2.12360363903449     -0.18320900512346
  H   -2.92065016487653      2.18140063090513     -0.19952277764962
  H   -0.62357267710591     -2.15106542778710      0.22671471997097
  H   1.42616166012986     -2.16720125534454     -0.26141229282499
  H   3.89274531248521     -2.05444180170689     -0.20089897243751
  H   4.99681189005527      0.19016723101461      0.04291064866121
  H   3.54175094035090      2.20618894414895      0.21968105861009
  N   -2.40489045883077     -1.10807125451781      0.10556280206504
  H   -2.94233553056887     -1.96278310975760      0.19311221248298
  N   1.77019694998223      1.16868214515070      0.11254159353311
  O   -4.40947526183290     -0.02420334744457     -0.00151641541189
