21
Coordinates from ORCA-job mp2_opt
  C   -0.30064083509833      0.06260505806306      0.00100875038987
  C   -1.06527064812689      1.25304689899391     -0.16099546483486
  C   -2.43053625549490      1.23679578880152     -0.16280524152496
  C   -3.18279673299974      0.01476909123596     -0.00182367658194
  C   -1.00192462744758     -1.10692830936148      0.14019383304316
  C   1.17167053929072      0.03750068856708      0.00654382618352
  C   1.92974055913074      1.20141950125028      0.17800432470509
  C   3.31665477838403      1.12018083695225      0.16218209264236
  C   3.91343540010512     -0.12255262046083     -0.01418995444423
  C   3.08525434417388     -1.23239998436842     -0.16112018765276
  H   -0.55952713780415      2.20052377209679     -0.31121317000117
  H   -3.00629622068665      2.14364268032510     -0.29726091363831
  H   -0.50415672931262     -2.06085110695779      0.25526156667424
  H   1.44667824543029      2.15599153146434      0.34256858019379
  H   3.91823272200462      2.01241705068671      0.29307472229473
  H   4.99033051172565     -0.23574627234066     -0.03461173301527
  H   3.50920687971261     -2.22324940883211     -0.29423764354650
  N   -2.35651966805285     -1.10699027815577      0.13575979321550
  H   -2.85776951524392     -1.98144932153202      0.24481298989886
  N   1.75169975835152     -1.16667458930533     -0.15820342466160
  O   -4.40494636804155     -0.10515000712260      0.01502393066049
