21
Coordinates from ORCA-job mp2_opt
  C   -0.29962704726218     -0.02074940537821      0.03287794411929
  C   -1.01841211863837      1.11642347682715      0.49827050919166
  C   -2.38261565145600      1.14159008547330      0.50726242706117
  C   -3.17301300643850      0.03240792443078      0.02301962266315
  C   -1.02920070169275     -1.06411579601201     -0.46655808525143
  C   1.17211238148747     -0.02697863624866     -0.01086279596049
  C   1.90677006918524     -1.08230437660548      0.53974548893568
  C   3.29528203348861     -1.03542458790722      0.49687287597609
  C   3.90466641211086      0.07908069534846     -0.06904465380541
  C   3.09455693439266      1.10086205747029     -0.55856248760497
  H   -0.45297376295137      1.97237662926340      0.85118644912710
  H   -2.93227247400762      1.99910247754202      0.87409741141774
  H   -0.57391379649361     -1.94969358024953     -0.89461095021151
  H   1.38843987984015     -1.91452253197490      1.00227588150377
  H   3.88793639022476     -1.84116540300180      0.91467604286253
  H   4.98304066663340      0.16697125487232     -0.11898339223951
  H   3.53535419195191      1.99444201888457     -0.99020603129345
  N   -2.38725254846106     -1.02233052877385     -0.45796873344055
  H   -2.91969620729367     -1.79839355573027     -0.83381538914965
  N   1.75741063731975      1.06580124420786     -0.53340691659980
  O   -4.39847428193966     -0.04415846243821     -0.00380421730141
