21
Coordinates from ORCA-job mp2_opt
  C   -0.30096489595996      0.06887811001540     -0.00003687167455
  C   -1.07176671203973      1.26687032798913     -0.00001292227187
  C   -2.43680633722209      1.24653888119650     -0.00000942004588
  C   -3.18598134691448      0.01253244370947     -0.00015432106531
  C   -1.00108995562639     -1.11012415534919      0.00000620934002
  C   1.17306777830915      0.04325021955522     -0.00002525679177
  C   1.93934555167203      1.21426676446128     -0.00006412790112
  C   3.32587133668656      1.12383175147040     -0.00004300701987
  C   3.91688531347422     -0.13362451356366      0.00000468660769
  C   3.08194303692743     -1.24811147007821      0.00003248531601
  H   -0.57558793971394      2.23043846317649      0.00002791960458
  H   -3.01444844374890      2.16211519631567      0.00008112731698
  H   -0.50054191935006     -2.06933430020246      0.00006083302216
  H   1.46766391936623      2.18779118405117     -0.00010324228452
  H   3.93128720188591      2.02308961032034     -0.00006716323940
  H   4.99318911777971     -0.25393804998292      0.00002799012479
  H   3.49977436793352     -2.25041464046445      0.00006801791723
  N   -2.35562399987083     -1.11404522210194     -0.00002824486451
  H   -2.85288038916552     -1.99751797580726      0.00002647466245
  N   1.74943995436602     -1.17427027725153      0.00001820371434
  O   -4.40773363878889     -0.11226634745945      0.00015662953256
