21
Coordinates from ORCA-job mp2_opt
  C   -0.29997661851364     -0.02687803831801     -0.03445554065696
  C   -1.01634763868517      1.09364452300265     -0.54137710897585
  C   -2.38069312886979      1.12161223588670     -0.55112868838621
  C   -3.17324146621120      0.03316233567610     -0.02537395611448
  C   -1.03137459846169     -1.04896688223186      0.50376289206300
  C   1.17290547459324     -0.03178640633906      0.01395646725014
  C   1.91040704966333     -1.05857177172264     -0.58384639301472
  C   3.29910624519786     -1.00767494093649     -0.54193979334306
  C   3.90478674985541      0.08319642915238      0.07163055740432
  C   3.09142077005527      1.07867896012780      0.60788835941227
  H   -0.45025367079256      1.93540051550607     -0.92641540329583
  H   -2.92844922959611      1.96629713044566     -0.94925064966898
  H   -0.57753698839281     -1.91976523515508      0.96251908952279
  H   1.39352163486721     -1.87311470408220     -1.07833451534621
  H   3.89431379814834     -1.79199158195748     -0.99540618196390
  H   4.98288314847544      0.17338600132678      0.12363295515245
  H   3.52933183438098      1.95390961671758      1.07833091212593
  N   -2.38959571402735     -1.00456467887191      0.49396980787798
  H   -2.92344856863743     -1.76541042103204      0.89791053987895
  N   1.75424629081842      1.03940834526731      0.58336839989379
  O   -4.39893937386775     -0.03933643246227      0.00479225018458
