20
Coordinates from ORCA-job mp2_opt
  C   1.85121351461358      1.15033606645419     -0.14312979209665
  C   0.98527192668819     -0.06859515514109      0.00745046382772
  C   1.80230718489621     -1.15251423103514      0.14469798351877
  C   3.19095901986835     -0.73082261579606      0.08706002960716
  C   3.24420164482334      0.61109937550121     -0.08561050406093
  H   1.67326733372348      1.87265421885826      0.66331950564874
  H   1.65010953966627      1.67487317329490     -1.08511565513466
  H   1.47932963837262     -2.17531172332310      0.29268618762671
  H   4.04047019936303     -1.39574331053704      0.17278920393115
  H   4.13601923145798      1.21752760440546     -0.16535671024098
  C   -0.47017007669979     -0.03948360816944      0.00358608158449
  C   -1.17824293754223      1.16424388477656      0.10678851272511
  C   -1.24102230284565     -1.20447675025076     -0.10705609495471
  C   -2.56884061533799      1.15001605847965      0.10217995069524
  H   -0.65576827947161      2.10977239600056      0.19577662366609
  C   -2.62659054734890     -1.11628911820531     -0.09701882611680
  H   -0.76798973145469     -2.17366842629009     -0.21502937440918
  H   -3.12172208396049      2.08139151989984      0.18235869201142
  H   -3.22852375001339     -2.01622676678157     -0.18138932828720
  N   -3.30643790879831      0.03615140785898      0.00523605045850
