20
Coordinates from ORCA-job mp2_opt
  C   1.85088729509711      1.08785911501333     -0.43016687115672
  C   0.98635592501742     -0.03026638017833      0.07850130622952
  C   1.79615837352797     -1.04634484869145      0.48873994343858
  C   3.18408693866108     -0.69134457973516      0.23666754721520
  C   3.23970868776015      0.55199630816633     -0.29685800876268
  H   1.71823731149227      2.00300302676898      0.16153501802250
  H   1.59892004260471      1.34684207202300     -1.46574690904198
  H   1.45987795828064     -1.98049398056493      0.92188491648213
  H   4.03294451504365     -1.32305840276574      0.46358581026898
  H   4.13190121650209      1.09229533256065     -0.58229682980643
  C   -0.47135707444941     -0.01420338911454      0.05131258577390
  C   -1.21198905456783      1.13900856494178      0.33356643210441
  C   -1.20038254253008     -1.15824389671482     -0.29415058717899
  C   -2.60065123547897      1.09255824439734      0.27907899656816
  H   -0.71494217373359      2.06250607280003      0.60912347336849
  C   -2.58939920073657     -1.10593051303015     -0.31675698293992
  H   -0.68394412776375     -2.07409286061926     -0.55960761347174
  H   -3.18403532102383      1.98062541834448      0.50341223783330
  H   -3.16358445833754     -1.98854181795336     -0.58269099668540
  N   -3.30200107536550     -0.00501948564818     -0.03739646826131
