21
Coordinates from ORCA-job opt
  C   -3.05626582061556      0.98846083619822     -0.97216925862301
  C   -1.66640504882607      1.03003374486299     -1.03778761509480
  C   -0.91779469237124      1.46751277440773      0.06116586349500
  C   -1.58642998507550      1.87311345253351      1.22208925996628
  C   -2.97608260384770      1.82529792351585      1.28774522198168
  C   -3.71435555124280      1.38440784806527      0.19086227286140
  H   -3.62631871197442      0.65494884450474     -1.83206747617406
  H   -1.15366496227726      0.74136962286740     -1.94973734630203
  H   -1.00993711994894      2.20082841137763      2.08118802059033
  H   -3.48292221848979      2.12966456815320      2.19664445234106
  H   -4.79657738022713      1.35025431384037      0.24192789056311
  C   0.55163884300463      1.53198668392716     -0.01554667626232
  C   1.30572605064687      0.44698159090129     -0.46910220560945
  C   1.25401272581331      2.66888064651090      0.39129460671298
  C   2.69278072405919      0.54925403874807     -0.50639353930598
  H   0.81753003108664     -0.47245958346586     -0.77384768940922
  C   2.64328313827960      2.67451856348130      0.31574611264848
  H   0.72268255803509      3.54712862100789      0.74180183403440
  H   3.29286826517159     -0.28714568256821     -0.85247707043597
  H   3.20289135769950      3.55440317705696      0.61921821918615
  N   3.37140940110002      1.63944660407360     -0.12422787716403
