21
Coordinates from ORCA-job opt
  C   -2.98331626151789      0.20627676787865      0.05614084661309
  C   -1.59267678095300      0.25014970626297     -0.01299620720754
  C   -0.92151132211942      1.47506903318174      0.05157070668523
  C   -1.66008797334728      2.65399180771858      0.19307336530739
  C   -3.05068800780545      2.60811391701765      0.26076229573987
  C   -3.71443810855753      1.38470198117485      0.19261753172809
  H   -3.49514184938224     -0.74824242748843      0.00570586487501
  H   -1.01937966578172     -0.66541456521195     -0.11663565263713
  H   -1.13903873875309      3.60445986928100      0.24588619967285
  H   -3.61527495821349      3.52762758173043      0.36734718164808
  H   -4.79649689178373      1.34980532931403      0.24623538038043
  C   0.55572477225979      1.52350366262427     -0.00957598628010
  C   1.23276363291492      1.53459415719076     -1.22974741509356
  C   1.32718773118918      1.57816648622480      1.15210443821101
  C   2.62378597651016      1.59217877654153     -1.23390870271096
  H   0.68154741273871      1.49949855983295     -2.16318882904625
  C   2.71405726768234      1.63334102248141      1.04413090722936
  H   0.85136589508503      1.57474877557668      2.12676802262453
  H   3.16773476415569      1.60168683406256     -2.17384421284807
  H   3.33079487934886      1.67360483671348      1.93714007278979
  N   3.37115422633016      1.64102588789203     -0.12325780768113
