20
Coordinates from ORCA-job mp2_opt
  C   1.88964677136222     -1.05369018547122     -0.52910072202521
  C   0.98504455003953     -0.01389350480746      0.06769950013120
  C   1.75966242334694      0.97522096083188      0.58367283546517
  C   3.16285817154713      0.69811173132887      0.32558333730286
  C   3.26130955277914     -0.48918896663411     -0.32084354369326
  H   1.66415104679919     -1.21947621418992     -1.58950329024766
  H   1.77599239053297     -2.02518315548356     -0.03036367418377
  H   1.38340117839769      1.85412980160187      1.09374838797167
  H   3.98701922456571      1.33169789703388      0.62500331040834
  H   4.17196755295848     -0.97603692468151     -0.64242938550416
  C   -0.47447340898179     -0.01981591782494      0.03147821893886
  C   -1.17733746897105      1.12778435685659     -0.35899491936694
  C   -1.23598387910637     -1.14078198103509      0.37667081517539
  C   -2.56781623068049      1.10507135894010     -0.36992962155379
  H   -0.63876244569490      2.01799616759216     -0.66407140022095
  C   -2.62380192676908     -1.06386334621431      0.32973091841037
  H   -0.75460341723049     -2.05964726130151      0.69329321141295
  H   -3.12566111245812      1.98709435455601     -0.67053406220283
  H   -3.22673437794216     -1.92504824533936      0.60188661898984
  N   -3.30130359449455      0.03420507424161     -0.03387753520806
