20
Coordinates from ORCA-job mp2_opt
  C   1.85372251509864     -1.14363604224294     -0.19694237293657
  C   0.98517643391156      0.06341546522991      0.01785665815545
  C   1.79874223129999      1.14134805473639      0.20872663493215
  C   3.18864636874836      0.72912769233006      0.11806670630849
  C   3.24519677363095     -0.60216168878699     -0.12339458423242
  H   1.64556041719253     -1.62458642527618     -1.16041387076396
  H   1.68530149925520     -1.90366268308804      0.57640592260870
  H   1.47084408607816      2.15282063947768      0.41360838875350
  H   4.03661349604399      1.39155338636856      0.23312851473976
  H   4.13851247869711     -1.20032718815475     -0.24020153453844
  C   -0.47026550626143      0.03520375436839      0.00986553690077
  C   -1.23592243765902      1.19834601758635     -0.14624198996658
  C   -1.18191330383288     -1.16258884496875      0.14965681830804
  C   -2.62202634086467      1.11505321255365     -0.13859952486525
  H   -0.75695299779872      2.15994836729887     -0.29074990216944
  C   -2.57237851576061     -1.14390732899332      0.13771618037509
  H   -0.66210298316894     -2.10555307155997      0.27483812731097
  H   -3.22095599272479      2.01302383403294     -0.25807597506269
  H   -3.12914514223642     -2.07001575102557      0.24670040410842
  N   -3.30553307964901     -0.03124339988628      0.00004286203401
