21
Coordinates from ORCA-job opt
  C   -2.96231478907284      1.43594245247369      1.35632610083546
  C   -1.57138112296393      1.47792963793579      1.29295069179663
  C   -0.92111576011052      1.46863220683488      0.05503996620551
  C   -1.68147548158191      1.42375496587992     -1.11753541845131
  C   -3.07229986766821      1.38053546726293     -1.05201260451286
  C   -3.71485731056208      1.38672646726657      0.18449798284650
  H   -3.45790431158979      1.44402202626768      2.32066444713711
  H   -0.98147761624615      1.51902765788530      2.20289284602351
  H   -1.17704691725350      1.41931146535161     -2.07836828113770
  H   -3.65360037544771      1.34270138580696     -1.96649207344181
  H   -4.79714575302422      1.35394367847793      0.23469491347637
  C   0.55555127718632      1.52584749289114     -0.01188970463326
  C   1.22646362927642      2.73761405344406     -0.18235669338474
  C   1.33379955669558      0.37409322517359      0.11135407463537
  C   2.61790461024657      2.74273950284898     -0.22756261050268
  H   0.67009168674700      3.66377060966260     -0.27759541758479
  C   2.72056579903668      0.48217953437288      0.05282071879852
  H   0.86333757612019     -0.59354302442203      0.24820338961104
  H   3.15712332188948      3.67616303593549     -0.35953676518143
  H   3.34231866534168     -0.40356363329369      0.14407621934771
  N   3.37153218298095      1.64105879194373     -0.11384178188316
