21
Coordinates from ORCA-job opt
  C   -3.06033498939517      2.59728539837474     -0.00044346898411
  C   -1.67015751149435      2.63941138051105     -0.07715157031737
  C   -0.92126255766349      1.46428674591529      0.04072186816390
  C   -1.58181556278540      0.24951655255044      0.24933990175220
  C   -2.97220502331906      0.20915241575942      0.32331017546279
  C   -3.71355970331222      1.38256598572355      0.19892071815516
  H   -3.63277897084490      3.51356694710688     -0.09188830136987
  H   -1.15690164515324      3.58379666577135     -0.22694823062504
  H   -1.00026478667379     -0.66164541751079      0.34582671748184
  H   -3.47615913022093     -0.73814316890906      0.47911702717800
  H   -4.79542112060115      1.35070946568397      0.25822089362954
  C   0.55544375290433      1.51377297450867     -0.01683031176754
  C   1.32659990779770      1.47525806166591      1.14580445814466
  C   1.23241370089652      1.63646379612844     -1.23108164737622
  C   2.71307209928510      1.54725227344220      1.04351155819631
  H   0.85046559290836      1.39201366023512      2.11678861508815
  C   2.62306411219744      1.70052576073332     -1.22980168518035
  H   0.68113988274969      1.67562174397817     -2.16435377281724
  H   3.32937665674638      1.51899305228168      1.93728359143908
  H   3.16719652751421      1.79067558318832     -2.16534359683924
  N   3.37015676846398      1.65780612286134     -0.11867493941466
