20
Coordinates from ORCA-job mp2_opt
  C   1.84934225724024      1.15729775901114      0.00004495931404
  C   0.98539983270585     -0.07257614788711     -0.00005902224825
  C   1.80547335287471     -1.16321186272683     -0.00010133717372
  C   3.19305806484519     -0.73481686452329     -0.00005371366766
  C   3.24354966531145      0.61812120309175      0.00002434760193
  H   1.65920922406997      1.78385473887512      0.88009323385619
  H   1.65922073667930      1.78411700454517     -0.87981180195887
  H   1.48738974340692     -2.19801749451044     -0.00015710762669
  H   4.04377097291791     -1.40373049570707     -0.00007070520533
  H   4.13401021531692      1.23174949823784      0.00005379805830
  C   -0.47011047199607     -0.04318266547136     -0.00006016188852
  C   -1.17526879374505      1.16672237738396      0.00000905475862
  C   -1.24548193517172     -1.21053657668103     -0.00013545005332
  C   -2.56598872531645      1.15683737594626     -0.00000592276373
  H   -0.65045030556680      2.11510559632973      0.00006377008772
  C   -2.63052849361016     -1.11733334880822     -0.00013833384652
  H   -0.77830204817781     -2.18833376524590     -0.00018449293259
  H   -3.11541701236062      2.09370545697960      0.00004888825804
  H   -3.23488770241648     -2.01958729087369     -0.00019736344513
  N   -3.30748657700730      0.04147950203439     -0.00008263912449
