21
Coordinates from ORCA-job opt
  C   -2.94730809451041      1.12219347478326      1.32214560388919
  C   -1.55727761855200      1.14818456047936      1.24852513055104
  C   -0.91829364405508      1.44734471478395      0.03988916077092
  C   -1.69439116117984      1.73522697561347     -1.08863599742969
  C   -3.08419319784778      1.70316609936210     -1.01431625062375
  C   -3.71367759367439      1.39772369923962      0.19111829327974
  H   -3.43245774555139      0.89560304575412      2.26496268337352
  H   -0.95850123628060      0.95223036477654      2.13226434707083
  H   -1.20161689695418      1.96193848003407     -2.02872716503784
  H   -3.67601160540949      1.91518678601778     -1.89772526976560
  H   -4.79586771663454      1.37603657064482      0.24915867247503
  C   0.55231147436428      1.50822850861379     -0.02891727360607
  C   1.21078077794781      2.64272205145519     -0.50852924130753
  C   1.34784509572572      0.45425941315077      0.42618800953701
  C   2.60198050434077      2.66545258429261     -0.52615269384825
  H   0.64482729761150      3.50245806204093     -0.85082724769410
  C   2.73300883336040      0.57204466575356      0.36679585132342
  H   0.89150870290281     -0.45423218762092      0.80444462410483
  H   3.12920287757399      3.54129265054371     -0.89274925891898
  H   3.36569842684105     -0.24235598068822      0.70723383886485
  N   3.37050151998138      1.65418246096948     -0.09981781700857
