20
Coordinates from ORCA-job mp2_opt
  C   1.84692722392173      1.06534481120950     -0.48739451902946
  C   0.98702939410547     -0.02005921428576      0.09486020267138
  C   1.79886661470302     -1.01098720575346      0.55746187715049
  C   3.18452460982192     -0.67536866099711      0.26580228539756
  C   3.23619948290702      0.53482245857191     -0.33919894880191
  H   1.72030522569304      2.01379232288235      0.05099127297347
  H   1.58291893105787      1.26341432994821     -1.53330654982392
  H   1.46419636934478     -1.91910923628066      1.04391789278587
  H   4.03506327554574     -1.29473753404742      0.51901233400383
  H   4.12608391020118      1.05512858009857     -0.66597548761400
  C   -0.47184052304255     -0.00923558871802      0.06285865395106
  C   -1.22137706519095      1.13003259290859      0.37479079720890
  C   -1.18959609501802     -1.14654997802668     -0.32438682495769
  C   -2.60926076923148      1.07634692002168      0.30816343397608
  H   -0.73131262814039      2.04703070079223      0.68309222242375
  C   -2.57910486613599     -1.10229516648044     -0.35720602084634
  H   -0.66323075932658     -2.05028906497829     -0.61111885522375
  H   -3.20049181408483      1.95280646433849      0.55621981459275
  H   -3.14560395196890     -1.97962236593818     -0.65521541690722
  N   -3.30059056516209     -0.01532016526550     -0.04879416393085
