21
Coordinates from ORCA-job opt
  C   -3.04666463407565      0.75388079851188     -0.85420263501909
  C   -1.65756073436747      0.80482109745605     -0.91554134321035
  C   -0.91998653294182      1.49730809568876      0.05452594923365
  C   -1.61717854878274      2.10937872895085      1.10551115707670
  C   -3.00608753202772      2.05582616667731      1.16821017220521
  C   -3.72818318464357      1.37842404447549      0.18812361664641
  H   -3.59707461576829      0.22514035886869     -1.62426022256822
  H   -1.14872037781864      0.33843945130561     -1.75104768743486
  H   -1.07125466438290      2.60762867634083      1.89827655528392
  H   -3.52362578393659      2.53354575086211      1.99249205232096
  H   -4.81013696785972      1.33647285440362      0.23679978995774
  C   0.55505205353600      1.52627540584853      0.01159632974200
  C   1.29543923845779      0.57688150025906     -0.70069190244609
  C   1.28844042586577      2.54400398255137      0.63124760134827
  C   2.68278744549806      0.66898112160492     -0.73751853677737
  H   0.80968003774265     -0.25522891953938     -1.19555864830827
  C   2.67612813564401      2.55068242650210      0.53829764416700
  H   0.79180403860848      3.34623268199682      1.16351198284247
  H   3.26062004778617     -0.07315041715657     -1.28038145733951
  H   3.24777999462846      3.33909899940352      1.01887850527804
  N   3.38680715883772      1.63424519498843     -0.13194292299864
