21
Coordinates from ORCA-job opt
  C   -3.07638107287895      2.50133364326407     -0.33959013848818
  C   -1.68704879150064      2.54543310360342     -0.41133176255691
  C   -0.91822002727450      1.47022746107002      0.05023415866953
  C   -1.56779655811795      0.35280727610602      0.58846823413688
  C   -2.95738136328029      0.30816343075709      0.65407795569910
  C   -3.71537291149643      1.38245482279318      0.19165101029937
  H   -3.66047480278649      3.34425520973252     -0.69163434291026
  H   -1.18970510169463      3.42667260229191     -0.80331023817270
  H   -0.97910902377813     -0.49261788831733      0.92954623455907
  H   -3.44912648250727     -0.56775966915670      1.06219714221129
  H   -4.79744904764277      1.34814182789965      0.24547712329222
  C   0.55205648522627      1.52275488954304     -0.01159513167958
  C   1.34253931565738      1.12469784992390      1.06959592760297
  C   1.21932834718537      1.98991329608245     -1.14687323516652
  C   2.72773962159662      1.20369501182272      0.96753716796264
  H   0.88351125388202      0.77736433904929      1.98880193217746
  C   2.60987962880886      2.03080918393012     -1.15249888518117
  H   0.66235918176897      2.29622009744762     -2.02567409859583
  H   3.35428629704710      0.90308417457873      1.80211600987346
  H   3.14184624545664      2.38381442001057     -2.03104476062733
  N   3.37258680632880      1.64742291756769     -0.11982230310549
