20
Coordinates from ORCA-job mp2_opt
  C   1.86217441119549     -1.12475975145069      0.30681456776819
  C   0.98491681325160      0.04521339094197     -0.03632223160950
  C   1.78813781240029      1.10454850556668     -0.33491783047818
  C   3.18181463342078      0.72344256561714     -0.18206620192361
  C   3.24883631690992     -0.57582589236110      0.19533104385485
  H   1.71177310506654     -1.95997547479680     -0.38921680351040
  H   1.64485579921512     -1.51052052472087      1.31027094670075
  H   1.44646765354012      2.08355918448543     -0.64795770261169
  H   4.02433536217713      1.37957066262099     -0.35684916099976
  H   4.14681423677156     -1.14833557209508      0.38340958646630
  C   -0.47100071397893      0.02157993659160     -0.02011066881618
  C   -1.22044634108070      1.18049343108890      0.22211171373036
  C   -1.19497930183505     -1.15762024360969     -0.23180864105364
  C   -2.60800695636266      1.11278892239760      0.21980197434165
  H   -0.72446303332467      2.12147920579748      0.43167983177368
  C   -2.58501157678843     -1.12410962117660     -0.20756210148031
  H   -0.68460373837361     -2.09411043414853     -0.42656968335820
  H   -3.19667745380484      2.00611932424947      0.40637908642289
  H   -3.15393628051443     -2.03401241683813     -0.37452810409188
  N   -3.30407674788524     -0.01458619815977      0.00995937887467
