21
Coordinates from ORCA-job opt
  C   -3.09837570384545      2.06064023912561     -0.85161563133452
  C   -1.70995125003475      2.08423866433956     -0.93601171577776
  C   -0.91958610067978      1.43754158514114      0.02425939008785
  C   -1.56481031175653      0.78965013580001      1.08675678663259
  C   -2.95335440862010      0.76880402228369      1.17242179082077
  C   -3.72738531105960      1.40357605422502      0.20362817141134
  H   -3.68974105063047      2.55644131216377     -1.61323874465863
  H   -1.23986214942992      2.57422271302127     -1.78094115775396
  H   -0.97991974177059      0.32353687600606      1.87114675401264
  H   -3.43081528935948      0.26579024030852      2.00586148499208
  H   -4.80907142556183      1.38754105200707      0.27093552721134
  C   0.55375607099112      1.49613207134901     -0.04203474371786
  C   1.36195112624149      0.56343443490417      0.61698623764794
  C   1.22152064865017      2.52554357490089     -0.71416463220694
  C   2.74600806026731      0.68411641429688      0.55848825626924
  H   0.92783869207943     -0.27736037891484      1.14462603858440
  C   2.61177143207532      2.56137509062005     -0.71672178684184
  H   0.67301664481258      3.31564776623716     -1.21253492020172
  H   3.37601294681542     -0.04385343013309      1.06104836168770
  H   3.13286983257245      3.35946102329579     -1.23725605242623
  N   3.38619728824320      1.66240753902225     -0.09531241443843
