21
Coordinates from ORCA-job opt
  C   -2.95184308940000      1.32431645597772      1.35350317603573
  C   -1.56113315615508      1.35214490158679      1.28200245938577
  C   -0.92014285137778      1.44807680985192      0.04264555281180
  C   -1.69057757107519      1.53366082577745     -1.12147585533017
  C   -3.08111350947057      1.50218773471071     -1.04811314442005
  C   -3.71398402720373      1.39795456838770      0.18910991037179
  H   -3.44014858713455      1.25151604647497      2.31884581069419
  H   -0.96370737472405      1.30311353820670      2.18671271644451
  H   -1.19328260149729      1.61442168602718     -2.08271907622300
  H   -3.67010893508087      1.56029979249703     -1.95658745070208
  H   -4.79623515853740      1.37582423109637      0.24576118403333
  C   0.55448560809169      1.51098971737545     -0.02879740538363
  C   1.21489913490835      2.70889364941626     -0.30657699651864
  C   1.34407973392331      0.38858268589011      0.22618075138965
  C   2.60653931743583      2.72669380673481     -0.33315683627472
  H   0.64974231113518      3.61506921540885     -0.49625582814494
  C   2.73009110366008      0.50728157881846      0.17524319417085
  H   0.88217033186310     -0.56627798431103      0.45290351886381
  H   3.13741657406841      3.64967219871442     -0.54701532774972
  H   3.36028565248642     -0.35695737514938      0.36336257837842
  N   3.37063409408414      1.65142191650750     -0.09924493183292
