21
Coordinates from ORCA-job opt
  C   -3.06757654691025      2.53626668147088     -0.25314038287583
  C   -1.67832957320281      2.57127540416501     -0.33707164277524
  C   -0.91894518504819      1.45498746240860      0.03149134965515
  C   -1.57312633668860      0.30985962589493      0.50000437831079
  C   -2.96266559060161      0.27489014262009      0.57782788271932
  C   -3.71281663972192      1.38802642615110      0.20256955003134
  H   -3.64622609670555      3.40879564290091     -0.53505476975178
  H   -1.17271387132310      3.47059330076954     -0.67397873828799
  H   -0.98711029852186     -0.55937182356540      0.78110572698570
  H   -3.46016857683166     -0.62179820459072      0.93004144746115
  H   -4.79456906187079      1.36132764607299      0.26639738328546
  C   0.55259614063512      1.50471760582002     -0.02517698080515
  C   1.33322628192562      1.20485079461976      1.09347455018382
  C   1.22476684389785      1.89912926864567     -1.18426050312735
  C   2.71867015403821      1.29506831189994      1.00035634480140
  H   0.86492424090332      0.91807306813305      2.02892588373865
  C   2.61493678381436      1.95802652778837     -1.17831610323409
  H   0.67062433925192      2.13886078133323     -2.08544457261910
  H   3.33977094663804      1.06862762402054      1.86198923372985
  H   3.15313886478811      2.25302589801667     -2.07428295225637
  N   3.36966218153379      1.66365481542483     -0.11113108516973
