20
Coordinates from ORCA-job mp2_opt
  C   1.85718459081631     -1.13574385031689      0.24903310023036
  C   0.98504349592009      0.05590448045845     -0.02680049290248
  C   1.79419017613782      1.12615111120637     -0.26884448364582
  C   3.18570162666741      0.72672912980751     -0.14805308353189
  C   3.24665001482783     -0.59112933188386      0.15834539378243
  H   1.69736086241058     -1.93165176309346     -0.48944575805152
  H   1.64401494544442     -1.57284130107202      1.23210568765640
  H   1.46030904344090      2.12373535199162     -0.52613942645900
  H   4.03144999127042      1.38639773764044     -0.29144100601481
  H   4.14195112218457     -1.17859333914127      0.30933418189439
  C   -0.47052603203160      0.02944417408211     -0.01503029255593
  C   -1.22928445075695      1.19073687643487      0.18268067873264
  C   -1.18731236268367     -1.16054509731945     -0.18925920266222
  C   -2.61601917090142      1.11410541483912      0.17746294675704
  H   -0.74285821236376      2.14326288900794      0.35947623301709
  C   -2.57760566401276     -1.13559797217697     -0.17125801812704
  H   -0.67144746324328     -2.10068951725373     -0.34811013812784
  H   -3.21065625610820      2.01002211280177      0.32944450372678
  H   -3.13958274784873     -2.05485108895170     -0.30789527325182
  N   -3.30477650916999     -0.02420701706083      0.00462444953324
