20
Coordinates from ORCA-job mp2_opt
  C   1.84960678296659     -1.15621290506116      0.05511626040273
  C   0.98543121539096      0.07227793669165      0.00102696398432
  C   1.80512449332891      1.16195108611220     -0.05079426552144
  C   3.19283112044209      0.73410225023318     -0.03492989189397
  C   3.24366085534679     -0.61730188773393      0.02934695960734
  H   1.66136634647791     -1.81926821670333     -0.79828734204734
  H   1.65773149077892     -1.74551928255104      0.96007460297687
  H   1.48640825038262      2.19508549834859     -0.10654568725594
  H   4.04338495464606      1.40231489705331     -0.06960575039497
  H   4.13424687488094     -1.23016783255247      0.05596453375034
  C   -0.47007212848884      0.04280573517913      0.00118522270426
  C   -1.24501177996212      1.20973258295894      0.04139195102941
  C   -1.17546758126802     -1.16627456794317     -0.03958824161212
  C   -2.63010655747660      1.11711756645189      0.03497239843192
  H   -0.77718454193691      2.18633112555984      0.08397794615361
  C   -2.56617391579886     -1.15591444387759     -0.04048851352333
  H   -0.65085037551393     -2.11419074493311     -0.07267660377817
  H   -3.23427572028545      2.01897652328301      0.06577117325919
  H   -3.11595671839692     -2.09203723143229     -0.07205881072497
  N   -3.30730206551414     -0.04085008908366     -0.00506390554775
