21
Coordinates from ORCA-job opt
  C   -3.03877039314728      0.51321848283373     -0.64676729282235
  C   -1.65014052863347      0.56542416706418     -0.71070968053158
  C   -0.92059482298457      1.47073806342714      0.07389100965072
  C   -1.64201723325042      2.34187078962539      0.90354191449775
  C   -3.03071712495343      2.29120383870898      0.96721039128536
  C   -3.73891632761572      1.37655329178370      0.19202414145388
  H   -3.57413290435880     -0.20381822645538     -1.25898809057903
  H   -1.13741073460590     -0.13344587483866     -1.35929358362010
  H   -1.12515440781005      3.08249625829860      1.50048885150296
  H   -3.56010664518690      2.97678751610283      1.61935641005207
  H   -4.82093882198011      1.33710644797453      0.24088624054292
  C   0.55591574863575      1.54489148709640     -0.01268869444769
  C   1.28811237159864      0.79888959442377     -0.94413608463017
  C   1.31491803632374      2.32594868090507      0.86725773376289
  C   2.67591389036301      0.88146744288539     -0.96855373495777
  H   0.79876839463627      0.16859864025967     -1.67504290649972
  C   2.70152440435323      2.34469694488135      0.76551431695295
  H   0.84946220227254      2.91523248548581      1.64641796567534
  H   3.23851614410977      0.30608453419470     -1.69781377151301
  H   3.28513477329035      2.95527866729769      1.44815679687579
  N   3.39869897894334      1.63966376804510     -0.13442593265121
