21
Coordinates from ORCA-job opt
  C   -2.99229053472586      1.97704609118233      1.21472025789891
  C   -1.60304049453445      2.03172052590280      1.15230471613583
  C   -0.91800879071883      1.48021359997155      0.06250254731865
  C   -1.65427850822717      0.87569646020398     -0.96393452539095
  C   -3.04378085030503      0.82681679746790     -0.90250171401392
  C   -3.71700941577881      1.37585939944992      0.18727842044710
  H   -3.50927702401119      2.39841821109346      2.06958205636236
  H   -1.04072581917817      2.47746915786061      1.96617595435635
  H   -1.13491843688145      0.47032309224411     -1.82603730281538
  H   -3.60194694644034      0.36534475379014     -1.70941635927248
  H   -4.79913355905371      1.33549405678433      0.23553170773819
  C   0.55202415758386      1.53492787507291     -0.00294353614548
  C   1.26043317820221      2.67049469057395      0.39933827390720
  C   1.30425642587427      0.45379138690338     -0.47037680136363
  C   2.64913417806972      2.67399361927423      0.31852474254702
  H   0.73576346000522      3.55314812246777      0.74810923990767
  C   2.69104351177465      0.55370777273170     -0.51330193549646
  H   0.81765016063616     -0.46654948193164     -0.77400252257071
  H   3.21065218944484      3.55279552248082      0.62159191959682
  H   3.28713598672739     -0.28193417206667     -0.86800838280017
  N   3.37438513153672      1.64010651854242     -0.12880875634693
