21
Coordinates from ORCA-job opt
  C   -2.98975416447307      1.85428362027133      1.27120609708049
  C   -1.60018810723639      1.91803246899589      1.21398075303855
  C   -0.91908927247012      1.49992440581588      0.06505307874991
  C   -1.65153216573629      1.00163332780428     -1.01836854036648
  C   -3.04135659780365      0.94400874152002     -0.96131337213408
  C   -3.71337646501714      1.36874699589101      0.18349543060823
  H   -3.50731495387484      2.17517463848032      2.16829829519495
  H   -1.03319707250435      2.27919447512752      2.06609015334857
  H   -1.12664134436410      0.68242055837636     -1.91308126927523
  H   -3.60011262008400      0.56867721469967     -1.81133956978382
  H   -4.79535515021443      1.32061648436730      0.22809750003511
  C   0.55298422824901      1.54038679511093      0.01466337840614
  C   1.25809544484872      2.71789389857207      0.27380370584357
  C   1.30045240956497      0.41399003738865     -0.33626128166355
  C   2.64697555868076      2.71227078719293      0.18912767862642
  H   0.72871304644044      3.63045257752973      0.52616949637898
  C   2.68753819603042      0.50861845644027     -0.39327301443584
  H   0.80718830711575     -0.52974712675674     -0.54280131517046
  H   3.20990845715327      3.62021316902701      0.38454720949701
  H   3.28394838056375     -0.36064424411790     -0.65430094593806
  N   3.37018288513129      1.63274171826347     -0.13746246804043
