21
Coordinates from ORCA-job opt
  C   -3.07165785620259      1.17919673892739     -1.02369049075473
  C   -1.68125505127408      1.21249604830414     -1.09657348435984
  C   -0.91940498295772      1.45294823540483      0.05165758373325
  C   -1.56995174034747      1.68038592481726      1.26889788091007
  C   -2.96027035126677      1.64240796788631      1.34050392053554
  C   -3.71344618052904      1.39256357815101      0.19482273830927
  H   -3.65394771162722      0.99441914993036     -1.91946397571516
  H   -1.17754392784257      1.05686210777204     -2.04523446705933
  H   -0.97940012024601      1.87263428666112      2.15894938479695
  H   -3.45542953905938      1.80906513461537      2.29059603029238
  H   -4.79561751403755      1.36589345554962      0.25109611986125
  C   0.55333348791640      1.52264893962996     -0.02912563741272
  C   1.32310659706077      0.38553363597625     -0.28070226772824
  C   1.23499036200500      2.72000033990604      0.19548965092326
  C   2.71001548889317      0.49796056191666     -0.31584568649843
  H   0.84546895346182     -0.57480322443707     -0.44265418108232
  C   2.62565607429065      2.73091187046282      0.13826181062929
  H   0.68617124505828      3.63290567752599      0.40045370947921
  H   3.32475468044500     -0.37615262037114     -0.50938564672452
  H   3.17220765324272      3.65514481961933      0.30114973313809
  N   3.37028443301661      1.64586437175171     -0.11287572527328
