20
Coordinates from ORCA-job mp2_opt
  C   1.85121651501349      1.15032757438754      0.14318960438307
  C   0.98527875935451     -0.06860058822617     -0.00747496402483
  C   1.80232135321871     -1.15250315877295     -0.14478653318556
  C   3.19097237086708     -0.73080984809578     -0.08711836265587
  C   3.24420698409018      0.61110261226896      0.08563158878179
  H   1.65012211519464      1.67475509383402      1.08524160908964
  H   1.67325662888983      1.87273809115152     -0.66317058643878
  H   1.47935453960914     -2.17529628610470     -0.29283236136729
  H   4.04048898719980     -1.39571877025664     -0.17288228081407
  H   4.13602444592294      1.21752666050956      0.16541209153890
  C   -0.47016263091161     -0.03948903291033     -0.00357794176825
  C   -1.17823677352516      1.16424547658320     -0.10669057568003
  C   -1.24101274844889     -1.20449095036477      0.10699246736931
  C   -2.56883501605298      1.15001602035208     -0.10207865572516
  H   -0.65576342132166      2.10978199929783     -0.19559952546893
  C   -2.62658198927977     -1.11630347263959      0.09697094066139
  H   -0.76797489320885     -2.17368710248403      0.21489990826115
  H   -3.12171450863095      2.08139866529016     -0.18218759441995
  H   -3.22851616235122     -2.01624627732643      0.18127387387710
  N   -3.30642955562923      0.03614329350652     -0.00521370241365
