21
Coordinates from ORCA-job opt
  C   -3.08463610874624      1.90026895286191     -0.94104382316350
  C   -1.69527140265473      1.95296720256153     -1.00249165229006
  C   -0.91803795091570      1.48104916505306      0.06254221932834
  C   -1.56219445533824      0.95820082708773      1.19072640966624
  C   -2.95174650973310      0.91135333227569      1.25273885777573
  C   -3.71720840315365      1.38074737592429      0.18689467924620
  H   -3.67400656210365      2.25914059054689     -1.77738642591398
  H   -1.20583619425892      2.33416045953417     -1.89267295831167
  H   -0.96990207084110      0.61581681074887      2.03289025905731
  H   -3.43758839362257      0.51394994181729      2.13684543766432
  H   -4.79939724377719      1.34196788207383      0.23496945119090
  C   0.55207935685051      1.53361334205819     -0.00281231495379
  C   1.34361238410187      0.48675906769109      0.47756523914169
  C   1.22127529943017      2.63265037506895     -0.54823522455768
  C   2.72877213937713      0.58300191590155      0.39343479305736
  H   0.88653563099882     -0.40604598560217      0.88984547990814
  C   2.61176361604509      2.63556270973744     -0.58769631960629
  H   0.66702682310549      3.48936245125736     -0.91545142956961
  H   3.35461329429160     -0.22671367524133      0.75692495691164
  H   3.14360227735225      3.48663366592985     -1.00274963071419
  N   3.37460947359217      1.63443759271380     -0.12851300386712
