20
Coordinates from ORCA-job mp2_opt
  C   1.85369307603137      1.13321623196883      0.26169524620231
  C   0.98524293271050     -0.05702289353808     -0.03138848955028
  C   1.79696400411340     -1.12332735360257     -0.28401965966788
  C   3.18701481127158     -0.72137194779883     -0.15138634802202
  C   3.24435845709143      0.59267745754928      0.17089883229474
  H   1.63450665202110      1.55880949917538      1.24846959594219
  H   1.69531666686842      1.93690116657162     -0.46867980469188
  H   1.46576003031797     -2.11839216000225     -0.55419676645410
  H   4.03494333815285     -1.37730917868231     -0.29927105724130
  H   4.13815502237942      1.17957495332326      0.33248251964238
  C   -0.47041478562645     -0.03043756988287     -0.01903788655691
  C   -1.18779364642319      1.15810445299179     -0.20076334794489
  C   -1.22855517773484     -1.18975557860313      0.19002834033624
  C   -2.57799337881822      1.13309558479155     -0.17957859070135
  H   -0.67255835676555      2.09703131424057     -0.36858517348311
  C   -2.61542280464945     -1.11366165983218      0.18727888139016
  H   -0.74097894141387     -2.14046028701044      0.37376540470884
  H   -3.14040193041825      2.05112991390346     -0.32243913900166
  H   -3.20945324218404     -2.00842609864417      0.34814219529615
  N   -3.30472672692418      0.02304315308111      0.00683624750236
