21
Coordinates from ORCA-job opt
  C   -3.09316149181587      2.41365823865413     -0.49863650441965
  C   -1.70421620137976      2.48332751226495     -0.53944702468735
  C   -0.91852096779864      1.51268345709378      0.09659513829176
  C   -1.56487296287994      0.45792857965160      0.75513734975675
  C   -2.95399005792485      0.38697168190225      0.79226571427395
  C   -3.72450853399992      1.36468489286296      0.16654916328325
  H   -3.68322059138408      3.18195531571814     -0.98562475578673
  H   -1.22707623365238      3.32164975119280     -1.03472210704188
  H   -0.97884318307678     -0.33024050678960      1.21429882182041
  H   -3.43507636076851     -0.44071406730751      1.30129489732514
  H   -4.80659568112079      1.30903926305810      0.19590073412440
  C   0.55341548894863      1.56744525306265      0.02659093280994
  C   1.36102920071694      0.98293592837761      1.00762141690979
  C   1.21702926988839      2.16095122184918     -1.05211250784544
  C   2.74493788425558      1.03194539128863      0.88008550822242
  H   0.92399529659821      0.52215440023214      1.88580698848232
  C   2.60729302878209      2.16016412108773     -1.09040176458642
  H   0.66289793952122      2.59759840574678     -1.87465430508149
  H   3.37716071224296      0.58808101269193      1.64343091224381
  H   3.12795621200751      2.61775716446032     -1.92644195909036
  N   3.38243423283999      1.60890898290142     -0.14720864900462
