20
Coordinates from ORCA-job mp2_opt
  C   1.85243059699809      1.14314326759617     -0.20206643606656
  C   0.98519703460324     -0.06368175992347      0.01926620502224
  C   1.79968684930296     -1.14030762462874      0.21434918113587
  C   3.18907808309672     -0.72699581499978      0.11924206552017
  C   3.24434978497407      0.60315132802644     -0.12842929611359
  H   1.68467430704882      1.90614129062193      0.56851559467595
  H   1.64193784650793      1.61994215465817     -1.16708303255187
  H   1.47272419020399     -2.15102493820372      0.42439395475236
  H   4.03781137497088     -1.38813625118709      0.23617242444096
  H   4.13717748573667      1.20123028198905     -0.24927466629092
  C   -0.47025838925201     -0.03547880122027      0.01114492265250
  C   -1.18220305390730      1.16178226740341      0.15402649713527
  C   -1.23561433328468     -1.19811584814497     -0.14921497880488
  C   -2.57264062826215      1.14287326039670      0.14112948385507
  H   -0.66274356961003      2.10448134475954      0.28260588164691
  C   -2.62177034716760     -1.11522515491059     -0.14214908824148
  H   -0.75610409067843     -2.15902535473131     -0.29670721531134
  H   -3.12964875300862      2.06853810342437      0.25259835291819
  H   -3.22042271006617     -2.01293156654140     -0.26492820603462
  N   -3.30555767820638      0.03049781561556     -0.00040464434025
