20
Coordinates from ORCA-job mp2_opt
  C   1.84992838550586     -1.15494934157769      0.08072333478884
  C   0.98542178426052      0.07182682556561      0.00017620570367
  C   1.80462421244427      1.16039807890339     -0.07616770269820
  C   3.19249408242103      0.73341208424091     -0.05079748675658
  C   3.24377604459842     -0.61618616971260      0.04415843169030
  H   1.66350128957827     -1.83501791869941     -0.75964063825736
  H   1.65639913604128     -1.72614147925101      0.99684453435016
  H   1.48508854899257      2.19154734354565     -0.15829709300577
  H   4.04286643797447      1.40086594585739     -0.10107790958142
  H   4.13458683222218     -1.22796929838050      0.08454926474694
  C   -0.47006754776649      0.04229284387387      0.00090630964631
  C   -1.24443508336527      1.20872845141382      0.06069085068568
  C   -1.17579734816976     -1.16582226393999     -0.05848182617125
  C   -2.62960593542428      1.11682516248571      0.05206207634664
  H   -0.77578739486732      2.18392496976568      0.12283853786984
  C   -2.56648133012504     -1.15488323539506     -0.05894736572600
  H   -0.65144894114974     -2.11320632071947     -0.10732460165223
  H   -3.23348945215418      2.01824547517464      0.09775178450025
  H   -3.11670882881223     -2.09014372961169     -0.10498482223366
  N   -3.30711989220455     -0.04014842353926     -0.00644788424615
