20
Coordinates from ORCA-job mp2_opt
  C   1.84961444071417     -1.15620450696805     -0.05516220743986
  C   0.98542921093084      0.07228181461812     -0.00107526097579
  C   1.80511395088500      1.16196291089320      0.05074794579664
  C   3.19282392449927      0.73411616347909      0.03492232041289
  C   3.24366360360436     -0.61728538805333     -0.02934182628647
  H   1.65779726192962     -1.74543446641443     -0.96018584149067
  H   1.66133332560549     -1.81932945824837      0.79817452955004
  H   1.48639878414123      2.19509722478015      0.10649364520768
  H   4.04336607107176      1.40234428357837      0.06960328331818
  H   4.13424464901788     -1.23015865328004     -0.05595427138040
  C   -0.47007398573487      0.04280126416742     -0.00121686828155
  C   -1.24501498868986      1.20972215134909     -0.04147904727170
  C   -1.17547339911487     -1.16627497101990      0.03965827743205
  C   -2.63011195549932      1.11711159164173     -0.03501148878129
  H   -0.77719845290456      2.18632257526795     -0.08414180598610
  C   -2.56618033050932     -1.15591381586570      0.04059729948092
  H   -0.65085962801395     -2.11419110093609      0.07279937031115
  H   -3.23428412525053      2.01896685378974     -0.06585529593403
  H   -3.11595592914881     -2.09203849079645      0.07224509853286
  N   -3.30731042753351     -0.04085198198249      0.00512014378545
