20
Coordinates from ORCA-job mp2_opt
  C   1.85367245148630      1.13325605115639     -0.26168003723052
  C   0.98524231860292     -0.05700555778380      0.03136125026310
  C   1.79697997892055     -1.12332021018508      0.28389521723121
  C   3.18702319491597     -0.72134118685991      0.15126620765361
  C   3.24434574757882      0.59272937784551     -0.17093451387609
  H   1.69528721557009      1.93695018961561      0.46867906750230
  H   1.63448255007581      1.55882686553176     -1.24846646923616
  H   1.46578715610941     -2.11840522867109      0.55401012778854
  H   4.03496268910813     -1.37728119054729      0.29907659716580
  H   4.13812817617904      1.17965501312349     -0.33249306559701
  C   -0.47041603660070     -0.03042713502049      0.01903651183742
  C   -1.18780367664659      1.15809567785368      0.20085337802550
  C   -1.22855159451701     -1.18973854060824     -0.19008702437665
  C   -2.57800506169217      1.13307344052303      0.17969818990091
  H   -0.67257287793826      2.09701447089515      0.36873427185919
  C   -2.61541983661308     -1.11365933732616     -0.18730418705170
  H   -0.74097452702916     -2.14043010971908     -0.37389121914635
  H   -3.14042141437384      2.05109178532748      0.32263087878965
  H   -3.20944123730834     -2.00842217177122     -0.34821047565815
  N   -3.30473221582788      0.02302579662025     -0.00677470584459
