20
Coordinates from ORCA-job mp2_opt
  C   1.89183669227192     -0.91793852130700      0.73686857338616
  C   0.98784946721349     -0.04129472322655     -0.08263600635288
  C   1.75938026078489      0.81758696952403     -0.79340556676717
  C   3.16363908588967      0.61327144073415     -0.47053018372333
  C   3.26259357314376     -0.40407630112994      0.41871683662296
  H   1.78212289788177     -1.97689037586592      0.46821731434215
  H   1.65747811937596     -0.84161488416130      1.80557740007008
  H   1.37911607426801      1.57060229830198     -1.47343327241117
  H   3.98708647754293      1.17298300861735     -0.89373880016009
  H   4.17364047432633     -0.80392237591767      0.84282653224823
  C   -0.47717675277698     -0.03596876758807     -0.03726648318125
  C   -1.15839126373162      1.08828190902686      0.44432030604790
  C   -1.25573894732359     -1.11369337717840     -0.46876970199865
  C   -2.54976501230123      1.08415221000000      0.46628909034371
  H   -0.60297766473358      1.94890693538499      0.80008009574032
  C   -2.64227428594802     -1.02037410630569     -0.40626527549225
  H   -0.78734332756504     -2.00999867842109     -0.86094208246148
  H   -3.09408538397755      1.94778413357114      0.83712268536045
  H   -3.26132027040187     -1.84593967082154     -0.74476967224171
  N   -3.29978521393926      0.05428687676268      0.05116521062801
