20
Coordinates from ORCA-job mp2_opt
  C   1.85528257707269     -1.13999388419471      0.22227928543471
  C   0.98511151782332      0.06003301483884     -0.02234270269350
  C   1.79664620021274      1.13447133196484     -0.23814794462768
  C   3.18728784737721      0.72804981959046     -0.13258878172504
  C   3.24584227384520     -0.59708673035014      0.14062688384246
  H   1.69109455245969     -1.91759011091539     -0.53442055317022
  H   1.64448440213401     -1.59977962977968      1.19546487381555
  H   1.46598904405819      2.13953687255319     -0.46882020118903
  H   4.03425941436268      1.38918672625450     -0.26140896381992
  H   4.14006780819595     -1.19035827328210      0.27424862391038
  C   -0.47037347882863      0.03256605006001     -0.01251209561490
  C   -1.23287458248646      1.19484258214210      0.16402036967791
  C   -1.18434204611715     -1.16167678072976     -0.16906536891434
  C   -2.61927647449136      1.11458227727590      0.15760503539768
  H   -0.75043886222147      2.15222007367386      0.32450367534944
  C   -2.57472461085587     -1.14015854216588     -0.15401495743406
  H   -0.66631645770688     -2.10333029448035     -0.31074570857002
  H   -3.21626588273994      2.01158577332375      0.29302055441501
  H   -3.13388178338429     -2.06314033451285     -0.27639697177747
  N   -3.30515245870965     -0.02807894126658      0.00232194769301
