20
Coordinates from ORCA-job mp2_opt
  C   1.85252707348769     -1.14665289054499     -0.17316058196559
  C   0.98525589995360      0.06615170479229      0.01331839737896
  C   1.80048010988748      1.14699992266291      0.18062546206308
  C   3.18978178919517      0.73005851512959      0.10457553845488
  C   3.24473251408823     -0.60634293704113     -0.10667923575411
  H   1.64738094766138     -1.64695959842790     -1.12738427611233
  H   1.67985597975399     -1.89017852096015      0.61505387158908
  H   1.47495843777818      2.16389331277154      0.36067735320321
  H   4.03851207205464      1.39363238300120      0.20678303089389
  H   4.13731237632204     -1.20854944975274     -0.20719560228576
  C   -0.47017531348129      0.03734384972353      0.00709482408928
  C   -1.23848463925865      1.20124236208069     -0.12923586193259
  C   -1.17993214206028     -1.16338854723785      0.13090182988416
  C   -2.62432708604482      1.11543240002428     -0.12039589969586
  H   -0.76245915110165      2.16647589060544     -0.25808445526840
  C   -2.57046294426779     -1.14704117990897      0.12217219384452
  H   -0.65870484127375     -2.10750483155562      0.24023213756203
  H   -3.22483566993909      2.01425842016173     -0.22450354563178
  H   -3.12522889435736     -2.07575303424577      0.21851288343308
  N   -3.30589951839773     -0.03389277127807      0.00238593625025
