20
Coordinates from ORCA-job mp2_opt
  C   1.89486851409251     -1.02834102957261     -0.58044901348478
  C   0.98542232211686     -0.02713091687371      0.07247405682145
  C   1.75469009883668      0.93745804395609      0.63825910765597
  C   3.15936787022571      0.68575043529166      0.36132058927557
  C   3.26354005846832     -0.46531862690941     -0.34693699281038
  H   1.66713067981050     -1.14003916340422     -1.64732906042589
  H   1.78871320600074     -2.02531649502675     -0.13284639712989
  H   1.37251332293486      1.78748244928870      1.19117430667014
  H   3.97993536482668      1.30869353856667      0.69127804965123
  H   4.17639619697337     -0.92870469239561     -0.69580772999450
  C   -0.47538280696902     -0.02883258436019      0.03237801065726
  C   -1.16835339745271      1.11520544316378     -0.38475124465776
  C   -1.24495406499966     -1.13565348968789      0.40327706546874
  C   -2.55920794672777      1.10226394698051     -0.39842936709391
  H   -0.62155074129498      1.99490654741611     -0.70525735111833
  C   -2.63215034936976     -1.04956546303456      0.35191504084731
  H   -0.76985452900016     -2.04976893097909      0.74253300684692
  H   -3.11038344188284      1.98126510588754     -0.71951996017543
  H   -3.24223006405232     -1.89917133471192      0.64374950941221
  N   -3.30064329253700      0.04472621640490     -0.03901162641595
