21
Coordinates from ORCA-job opt
  C   -3.05241463930979      0.94650789530212     -0.95644587590604
  C   -1.66271358457897      0.99108293598950     -1.02003943054403
  C   -0.91781963262630      1.47422980860869      0.06254613220934
  C   -1.59202530226743      1.91596411074183      1.20731028781150
  C   -2.98149980018460      1.86523140168825      1.27122012382261
  C   -3.71549844502582      1.38193213176035      0.18948441702768
  H   -3.61857012255994      0.57878779432285     -1.80489493137662
  H   -1.14830473992287      0.67362021577411     -1.92128418898699
  H   -1.02045154234471      2.27268350551178      2.05797956604501
  H   -3.49153843801515      2.19895141522236      2.16794273577703
  H   -4.79769607067525      1.34517907443374      0.23910605107249
  C   0.55173738094438      1.53346291774451     -0.00936413082280
  C   1.30144342238843      0.46561014124333     -0.50936381272897
  C   1.26040186114198      2.65283845699191      0.43451366459954
  C   2.68853323630711      0.56485810718380     -0.54828496608822
  H   0.81107017629723     -0.44162870469604     -0.84521581031488
  C   2.64925682971375      2.65694596467747      0.35406372103995
  H   0.73486981334227      3.52139226221035      0.81624184952477
  H   3.28410108090004     -0.25954369176747     -0.92921243599451
  H   3.21249027615144      3.52355131268593      0.68754819932269
  N   3.37269524032418      1.63722894437061     -0.12752416548955
