20
Coordinates from ORCA-job mp2_opt
  C   1.85091058438777     -1.15144227312390      0.12769637957761
  C   0.98535773917235      0.06989120075584     -0.00505555360258
  C   1.80299625461215      1.15528367531722     -0.12732440157241
  C   3.19142442709692      0.73179199721007     -0.07871741875649
  C   3.24412730492221     -0.61244846926135      0.07460879017433
  H   1.67038919342691     -1.86337851313302     -0.68730937245600
  H   1.65214880344913     -1.68770211612136      1.06356841973515
  H   1.48101764146849      2.18058517009063     -0.25905548116465
  H   4.04118949350752      1.39741600260452     -0.15611470221353
  H   4.13563744807496     -1.22059334788121      0.14403889951514
  C   -0.47009577521474      0.04043863732078     -0.00206408577908
  C   -1.24225860725072      1.20569046114507      0.09592154739721
  C   -1.17722992200028     -1.16472839858953     -0.09472687256255
  C   -2.62768972648163      1.11614924931899      0.08577882578627
  H   -0.77077196705549      2.17675365791641      0.19301718106001
  C   -2.56786017062457     -1.15174525974847     -0.09175826390926
  H   -0.65398812195264     -2.11070615303352     -0.17372218579696
  H   -3.23038987146992      2.01642886500178      0.16047290014165
  H   -3.11973938350914     -2.08438745889880     -0.16370827106791
  N   -3.30659834455927     -0.03775992689015     -0.00596033450594
