21
Coordinates from ORCA-job opt
  C   -3.00837890950229      2.12186752795894      1.12036067685822
  C   -1.61936671641732      2.17304167144741      1.05702661090955
  C   -0.91798337515716      1.46411663669800      0.07211987289257
  C   -1.65489501297301      0.72867647801765     -0.86670051150975
  C   -3.04401173703733      0.68000609156508     -0.80490806663197
  C   -3.72801023562663      1.37576751049769      0.18955284885610
  H   -3.52867045388234      2.66624037417518      1.90040133785993
  H   -1.07711300767868      2.73441498048476      1.80890599301680
  H   -1.14325619110314      0.21267324394550     -1.67089432995879
  H   -3.59314090417314      0.10758013619396     -1.54402226211108
  H   -4.81014248753180      1.33806166863783      0.23778580062173
  C   0.55311537419982      1.54178906663700     -0.01889830794509
  C   1.27779639319630      2.59076602599249      0.55673910036376
  C   1.30557778638798      0.53491395732160     -0.63338486164851
  C   2.66607605560391      2.59902991021287      0.47201309090083
  H   0.77464634361052      3.42111034508291      1.03698117742267
  C   2.69253794665948      0.63234257680448     -0.66814718969702
  H   0.82737574294820     -0.33727065279918     -1.06250004916801
  H   3.23043582729878      3.41790085574697      0.90824764093627
  H   3.27889464777003     -0.14746471204511     -1.14504593385680
  N   3.38658291340781      1.64332430742396     -0.12930863811140
