21
Coordinates from ORCA-job opt
  C   -2.96064614413659      0.31087333644097      0.65404910080461
  C   -1.57138712248353      0.35435139415174      0.58681286818359
  C   -0.91837777342984      1.47097647382341      0.04944464399157
  C   -1.68946146621825      2.54653340582698     -0.40947889286922
  C   -3.07851889063359      2.50366003218561     -0.33689657186063
  C   -3.71907847101715      1.38554687511224      0.19366445010783
  H   -3.45183064090556     -0.56560968816522      1.06163874032721
  H   -0.98799612548745     -0.49692819648195      0.92126627497166
  H   -1.19637680015397      3.43241028718022     -0.79534322627283
  H   -3.66123516197467      3.34816457733077     -0.68742707794077
  H   -4.80111760284401      1.35216790030245      0.24847393145201
  C   0.55223482686524      1.52227211477424     -0.01349718220637
  C   1.21991240588246      2.14280196709505     -1.07337012548243
  C   1.34843669244664      0.96899976501614      0.99351993195790
  C   2.61039687037977      2.17564989456361     -1.08180193723850
  H   0.66560628827229      2.57151614752285     -1.90075402971396
  C   2.73340132231526      1.05248427656490      0.89521959570289
  H   0.89696371314780      0.50080643720575      1.86099745911283
  H   3.13914206967754      2.64819176370473     -1.90433818899597
  H   3.36111177825959      0.63064433087227      1.67462627784505
  N   3.37688723203800      1.64337290497323     -0.12047604187646
