21
Coordinates from ORCA-job opt
  C   -3.01379821597639      0.38812132651328     -0.48840266952900
  C   -1.62471584799790      0.44042636238800     -0.55080738523560
  C   -0.91761218869740      1.47441924506157      0.07724920167883
  C   -1.64412994456277      2.46838431371294      0.74691328581127
  C   -3.03337726838613      2.41745498423569      0.80579231140387
  C   -3.72460133752137      1.37654000297787      0.18926966843286
  H   -3.54118328590617     -0.42855317073199     -0.96843099643187
  H   -1.08459693878427     -0.35253920572130     -1.05560550947793
  H   -1.12218000553429      3.30419789875509      1.19918618923464
  H   -3.57700841617988      3.19939358420877      1.32401010706483
  H   -4.80675853997277      1.33657536686188      0.23549506658974
  C   0.55266733295325      1.54771717030433     -0.00857086577813
  C   1.26115878880885      0.96965075549759     -1.06670676921641
  C   1.31629176642715      2.15705258569907      0.99244958499946
  C   2.65006438790169      1.04282624280551     -1.08629936329360
  H   0.74260821667766      0.49637141601344     -1.89203590018937
  C   2.70270319897745      2.17986864647277      0.88327456894309
  H   0.84466229425680      2.58911671634345      1.86718661230489
  H   3.20464627867881      0.60501694946761     -1.91099905309925
  H   3.30049318794177      2.65047936568794      1.65821263395969
  N   3.38273453689591      1.63636644344649     -0.13485371817201
