19
Coordinates from ORCA-job mp2_opt
  C   -0.45230818233711      0.02022026789271     -0.00425737712187
  C   -1.18023072183774      1.20088896822710      0.18493273238412
  C   -1.14424639104666     -1.18353305410262     -0.18542181434076
  C   -2.57181798736195      1.17996277521593      0.18525094745527
  H   -0.65362166042536      2.13435448893240      0.35237945513836
  H   -0.57805163546429     -2.09598616866438     -0.33311881887939
  C   -3.25486028037250     -0.02107108297389      0.00301962128631
  H   -3.12363441003316      2.10114751941911      0.33604977071318
  H   -4.33877900919632     -0.03733852382792      0.00506941365248
  C   1.01030642434551      0.04298767908089     -0.00698344646519
  C   1.87399218419421      1.11471979435307     -0.31276247637556
  H   1.60983981042330      2.11232286484090     -0.62308888558018
  C   -2.53511302279532     -1.20175104058747     -0.17836607866478
  H   -3.06061261421124     -2.13937701974058     -0.32189949052213
  C   3.14979865802554      0.60522160105195     -0.16520909815780
  H   4.12610978327869      1.04303904198960     -0.29868601681485
  N   2.99004517088039     -0.68956618876118      0.20452224526152
  H   3.71184995072850     -1.36300094077937      0.41017764614070
  N   1.71252393320550     -1.06558398156624      0.31361067089058
