19
Coordinates from ORCA-job mp2_opt
  C   -0.45593912389421      0.00855516339325     -0.04906315309036
  C   -1.15384063596991      1.15649511944740      0.34008573993754
  C   -1.17188859003556     -1.14612222126776     -0.37968995302690
  C   -2.54599871158767      1.15677973421339      0.37340462849166
  H   -0.59744107752049      2.04562689709831      0.61776763529500
  H   -0.62761425745863     -2.04044179713935     -0.66316144748829
  C   -3.25381838075537      0.00597698025045      0.03089244502549
  H   -3.07835498716292      2.05161697762517      0.67604388586811
  H   -4.33754399693020      0.00572165085583      0.05895195679184
  C   1.01391531326643      0.00364827574765     -0.05756039414947
  C   1.88284942367957      0.73578755627476     -0.88812719839022
  H   1.61537302947907      1.39658047166927     -1.69660790542090
  C   -2.56364468592207     -1.14598413373837     -0.34306651199836
  H   -3.11034693495068     -2.04511348827470     -0.60447216039460
  C   3.15586154857133      0.40941121848894     -0.45656827506318
  H   4.13619242168769      0.71158776252965     -0.78917781064444
  N   2.98440123867897     -0.45917229122123      0.56964406238874
  H   3.69994019803360     -0.89636001426900      1.12968305933142
  N   1.70207520879106     -0.72385986168366      0.84757039653691
