19
Coordinates from ORCA-job mp2_opt
  C   -0.45261724840228     -0.02148978370119      0.00174818352706
  C   -1.14227104608908      1.18790573947906      0.15307214870590
  C   -1.18405458578912     -1.20534902493062     -0.15051371543372
  C   -2.53294877435426      1.20867006395536      0.14993274279520
  H   -0.57419494025545      2.10303123922314      0.27390676906570
  H   -0.66168968518709     -2.14534566955919     -0.29179319804210
  C   -3.25597978865421      0.02514901216509      0.00370031939289
  H   -3.05579086991887      2.15121395384497      0.26892195353748
  H   -4.33985276575460      0.04351835192418      0.00474434739786
  C   1.01006749839713     -0.04652775709171      0.00391315540918
  C   1.87423454844684     -1.13235613916069      0.25462630357097
  H   1.61247665981975     -2.14645198348648      0.50788656198495
  C   -2.57551435454149     -1.18168262568616     -0.14695317642762
  H   -3.12924423999537     -2.10605878350134     -0.26833589875577
  C   3.14997859868285     -0.61492519024594      0.13873370343806
  H   4.12611538570669     -1.05915615321645      0.25034554594033
  N   2.99036914637823      0.69788100224234     -0.16043680985016
  H   3.71217975586240      1.38235459771745     -0.32588819562742
  N   1.71314470564794      1.07839415002819     -0.25226074062879
