19
Coordinates from ORCA-job mp2_opt
  C   -0.45411475732476      0.01682039788867     -0.04813867687050
  C   -1.15921431776978      1.16563975116680      0.32670503400241
  C   -1.16306046801388     -1.14719715844194     -0.36297227008311
  C   -2.55112451483148      1.15800351624239      0.35875187685748
  H   -0.60904340456950      2.06017226532063      0.59981664456022
  H   -0.61194631531875     -2.04026738543935     -0.63632510496816
  C   -3.25224661632355     -0.00134181970839      0.03149031297011
  H   -3.08872498578247      2.05311388711965      0.65117269162179
  H   -4.33594150657379     -0.00767746868340      0.05901251435418
  C   1.01195612897445      0.01869144050907     -0.05316224928647
  C   1.88224231668811      0.93438847927401     -0.67510949632886
  H   1.61734914141633      1.77006279057881     -1.30237487840535
  C   -2.55432742496912     -1.15416612590090     -0.32615394891324
  H   -3.09560667640929     -2.05957753185433     -0.57708234413663
  C   3.15421336544690      0.51190028600434     -0.33517940663497
  H   4.13483061035773      0.88563664332217     -0.58347366355115
  N   2.98205035274564     -0.58401620047870      0.44434236739883
  H   3.69729835351239     -1.14385818814019      0.88229152698617
  N   1.69985171874479     -0.90934857877933      0.64578107042723
