19
Coordinates from ORCA-job mp2_opt
  C   -0.45326058067575      0.01926941248380      0.03915533201628
  C   -1.16609250836573      1.17867867937581     -0.28613654254426
  C   -1.15562792180508     -1.15908680308678      0.31499760680478
  C   -2.55791040529484      1.16571153619679     -0.31100359834526
  H   -0.62308358192857      2.08555862748728     -0.53147274563358
  H   -0.59846312417968     -2.05796654447911      0.55435062251072
  C   -3.25235932911981     -0.00860899450699     -0.02553035278305
  H   -3.10080515761310      2.06911205949835     -0.56574919956329
  H   -4.33612804421384     -0.01901250094757     -0.04770222006464
  C   1.01073174402536      0.02838635686227      0.04299722424068
  C   1.87901279003904      1.01516912926478      0.54957604311426
  H   1.61356939981294      1.92179709363920      1.06871178698993
  C   -2.54668676043782     -1.17079755872340      0.28393605057304
  H   -3.08242228281932     -2.08748715078005      0.50401908322416
  C   3.15199889972452      0.55356967728980      0.27154066831369
  H   4.13143603021774      0.95569793587548      0.47613882509303
  N   2.98343761849973     -0.63258778909077     -0.36361134480535
  H   3.70075210826841     -1.24225695576070     -0.72485454380612
  N   1.70254710586579     -0.98101921059819     -0.52800569533500
