19
Coordinates from ORCA-job mp2_opt
  C   -0.45229290485297      0.02137883091405     -0.00147596706702
  C   -1.18310256624665      1.20564377293636     -0.15357064506832
  C   -1.14259080390595     -1.18766173634915      0.14975816659826
  C   -2.57457145071287      1.18275260601924     -0.14995649887845
  H   -0.66024651964292      2.14536739873309     -0.29486666482369
  H   -0.57502489373685     -2.10312445179941      0.27042082183763
  C   -3.25575038040349     -0.02370818668561      0.00063707558767
  H   -3.12776508587398      2.10746158798868     -0.27124394716204
  H   -4.33962923020052     -0.04150336267323      0.00177070157474
  C   1.01040111340172      0.04570388703194      0.00077533629113
  C   1.87502816927210      1.13091433036020      0.25264368866380
  H   1.61368866131588      2.14485184686658      0.50696328313992
  C   -2.53330140697239     -1.20764275445087      0.14667605353231
  H   -3.05662484039439     -2.14992976591788      0.26559710710983
  C   3.15054233234211      0.61300947031476      0.13636355356521
  H   4.12686798816669      1.05668222771861      0.24854480044912
  N   2.99037379679352     -0.69942888967052     -0.16414292067836
  H   3.71190485283016     -1.38402331804096     -0.33029915670635
  N   1.71298116882080     -1.07925249329588     -0.25650078796539
