19
Coordinates from ORCA-job mp2_opt
  C   -0.45363358783314      0.01838304231206      0.04443101324908
  C   -1.16251057240197      1.17210862076769     -0.30799982431796
  C   -1.15923779328993     -1.15270426246924      0.34098078037578
  C   -2.55437619829637      1.16166011794403     -0.33685062506038
  H   -0.61577821284698      2.07251854499893     -0.56848625600804
  H   -0.60500723216779     -2.04839940088323      0.59871272697115
  C   -3.25213987546270     -0.00499957644486     -0.02897904342777
  H   -3.09465347865525      2.06060206237163     -0.61209072574655
  H   -4.33586539916194     -0.01347069983296     -0.05418512966891
  C   1.01128645918150      0.02364332323868      0.04870794384555
  C   1.88069318649675      0.97820804397502      0.61116257978144
  H   1.61556620793442      1.85228132687445      1.18360148423350
  C   -2.55037017953560     -1.16219346008526      0.30653131253584
  H   -3.08885810329279     -2.07313530252292      0.54307559444638
  C   3.15306281001336      0.53437483533881      0.30214119169226
  H   4.13316393432100      0.92351526583589      0.52771319387694
  N   2.98246667888112     -0.61086038713010     -0.40357673920420
  H   3.69866578990967     -1.19748219253868     -0.80319644860434
  N   1.70081656620663     -0.94864190174995     -0.58575102896977
