19
Coordinates from ORCA-job mp2_opt
  C   -0.45283255195128     -0.01651007829810      0.00207915390497
  C   -1.14545981268024      1.18017847024264     -0.21761312689991
  C   -1.17904098844564     -1.19406425072902      0.21512787923651
  C   -2.53647616701331      1.19685709913813     -0.21438154792346
  H   -0.57979174383166      2.08878002719752     -0.38980926503950
  H   -0.64987493077928     -2.12163987637825      0.40632031723031
  C   -3.25466795597458      0.02017677738720     -0.00344663262182
  H   -3.06316000402667      2.12901097848324     -0.38636204997978
  H   -4.33861565837015      0.03488108382825     -0.00471070918378
  C   1.00972458087675     -0.04024438220538     -0.01112073493679
  C   1.86838952392434     -1.09811447395350     -0.37280094104756
  H   1.59775658750771     -2.07697913971024     -0.73345800965465
  C   -2.57072255244951     -1.17494742411895      0.21175001878718
  H   -3.12198430156254     -2.09272373036027      0.38386512957132
  C   3.14644145013175     -0.60070408365937     -0.20361194073072
  H   4.12100344789872     -1.03382114792502     -0.36290690298894
  N   2.99198363642266      0.67382185325839      0.23278334382137
  H   3.71676793460863      1.33333222664102      0.47049297980832
  N   1.71578050571432      1.04799307116172      0.36559403864693
