19
Coordinates from ORCA-job mp2_opt
  C   -0.45336366947199     -0.00991153485570      0.00599623425191
  C   -1.15088995199047      1.17039870266600     -0.27532685734115
  C   -1.17292903027510     -1.18031675145852      0.27242801399172
  C   -2.54218077193650      1.18175189756846     -0.27075782820862
  H   -0.58919166287967      2.07201502765454     -0.49255612969491
  H   -0.63626665478147     -2.09473690015152      0.50304799949380
  C   -3.25404448609158      0.01335999658952     -0.00097134040651
  H   -3.07353207457912      2.10156526714700     -0.48854322103534
  H   -4.33804407809865      0.02323136003475     -0.00111959209826
  C   1.00961685445633     -0.03114710507428     -0.02100227967119
  C   1.86240781419730     -1.05002661480168     -0.48993580238776
  H   1.58318003790427     -1.98295721246350     -0.95197035197123
  C   -2.56487792579225     -1.16731027166084      0.27058017002528
  H   -3.11233142230726     -2.07805661050632      0.48652119923412
  C   3.14308022825056     -0.58016482146595     -0.26743817004757
  H   4.11580634028069     -0.99872778137676     -0.47097537159517
  N   2.99425191907872      0.64120065971451      0.30245304703186
  H   3.72224172343052      1.26716219411532      0.61055842993385
  N   1.71922581060569      1.00584149832497      0.47417685049517
