19
Coordinates from ORCA-job mp2_opt
  C   -0.45231202437408      0.02026365904058      0.00420706135200
  C   -1.18023918844511      1.20093505267433     -0.18494722362429
  C   -1.14424388052495     -1.18348995589029      0.18536969069434
  C   -2.57182564604217      1.18002430688252     -0.18524185877650
  H   -0.65363044705240      2.13440321763303     -0.35238315807514
  H   -0.57802087474899     -2.09592884045142      0.33305085317279
  C   -3.25483515454450     -0.02107402253378     -0.00305326002097
  H   -3.12365581822807      2.10120292860314     -0.33602024181292
  H   -4.33875361052796     -0.03735476749154     -0.00510064831654
  C   1.01030376662961      0.04300642804300      0.00689069754973
  C   1.87402462482057      1.11471063275270      0.31267240836110
  H   1.60993125880098      2.11232245758308      0.62302024209827
  C   -2.53510041287423     -1.20175296382100      0.17833348000262
  H   -3.06059401660052     -2.13938358922905      0.32185582492681
  C   3.14981563866016      0.60517831743969      0.16508563756134
  H   4.12614266191506      1.04296728857885      0.29854137798188
  N   2.99001957614107     -0.68959632200435     -0.20467299031261
  H   3.71180087408250     -1.36305179694857     -0.41034319051318
  N   1.71248567291302     -1.06557503086093     -0.31374170224874
