19
Coordinates from ORCA-job mp2_opt
  C   -0.45622576355868      0.01137853486787      0.01148656015053
  C   -1.17139672232563      1.15487289344577     -0.35802383653426
  C   -1.15640857458540     -1.14828721447842      0.35958195531446
  C   -2.56356826777441      1.14689493593207     -0.35275919048929
  H   -0.62594991843173      2.04929841945096     -0.63885119472488
  H   -0.60146137242879     -2.03772265764952      0.63910945612517
  C   -3.25547565574026     -0.00908576581576      0.00543151226395
  H   -3.10932920890826      2.04000497126359     -0.63572249985236
  H   -4.33949743844999     -0.01566774667141      0.00698151915916
  C   1.01281003932050      0.00226470778333     -0.03360101323320
  C   1.84983659690617     -0.74366315492911     -0.88473113363894
  H   1.55241517453595     -1.40557664784648     -1.68168049816518
  C   -2.54896177082182     -1.15648406765687      0.36152128295137
  H   -3.08285913211274     -2.05789977331150      0.64088903738391
  C   3.13791196701876     -0.42754511075335     -0.49213352391380
  H   4.10507973911422     -0.74121204475631     -0.85139566397270
  N   3.00522632907079      0.44837739486545      0.53363280226595
  H   3.74098634400845      0.88127537539155      1.07028252434743
  N   1.73426463516287      0.72740095086814      0.84682990456268
