19
Coordinates from ORCA-job mp2_opt
  C   -0.45733022096830      0.00605518308277      0.03364315109841
  C   -1.15999325286184      1.18048497731477     -0.25319345747283
  C   -1.16878513240057     -1.17167122163615      0.28211770158478
  C   -2.55250910823208      1.17986763399535     -0.27705081400362
  H   -0.60723890585138      2.09076519861157     -0.46038950995219
  H   -0.62164828248406     -2.08438761176234      0.49232878045963
  C   -3.25560436031100      0.00383986559390     -0.02149134244390
  H   -3.08890648372869      2.09505234796772     -0.50165923191477
  H   -4.33954022349460      0.00323267980692     -0.04164422470262
  C   1.01453460014216      0.00376036339629      0.04658751014403
  C   1.87769729047418      0.47091529422043      1.05512273909258
  H   1.60387894722525      0.89330446531617      2.00827767772884
  C   -2.56100847975514     -1.17224633552437      0.25639542104088
  H   -3.10411515946191     -2.09025525682347      0.45130688981752
  C   3.15396873690334      0.26082750709138      0.56464294410135
  H   4.13188954702777      0.45302467253633      0.97655640927861
  N   2.98997733266481     -0.29359108940379     -0.66084718951110
  H   3.70938963662565     -0.57239606823497     -1.30992699654050
  N   1.70910151848641     -0.45985660554850     -1.01359245780510
