19
Coordinates from ORCA-job mp2_opt
  C   -0.45522556385427      0.00375831014128     -0.01413096214837
  C   -1.16398854547247      1.15125383016361      0.35675118392703
  C   -1.16182460709149     -1.15249677122789     -0.36150797461661
  C   -2.55591355259114      1.14936990621818      0.35473703894598
  H   -0.61266077106922      2.04168192877853      0.63863359048598
  H   -0.61218747622299     -2.04339141377264     -0.64723749791990
  C   -3.25456212301281     -0.00309877483246     -0.00231243114399
  H   -3.09682907472923      2.04447058273896      0.64101842920154
  H   -4.33864480015103     -0.00448489583274     -0.00134978171130
  C   1.01140065261913     -0.01139198900662      0.02730889477473
  C   1.85144665049082     -0.88607990669601      0.74215227816062
  H   1.55708782825325     -1.67169410518608      1.41901321382866
  C   -2.55425588191420     -1.15365524160723     -0.36058793416986
  H   -3.09306603283724     -2.05183729322322     -0.64112894855619
  C   3.13813458820767     -0.50053159387290      0.41302306357117
  H   4.10649128705740     -0.86325528984912      0.71908678818654
  N   3.00223791629011      0.53578327408708     -0.45019813434111
  H   3.73674939133162      1.05729926991999     -0.90337061398115
  N   1.73052611469610      0.85660417305926     -0.71568220249377
