19
Coordinates from ORCA-job mp2_opt
  C   -0.45231966915733      0.02141358260124      0.00147586647609
  C   -1.18313063455181      1.20567809242821      0.15357662232728
  C   -1.14261358677446     -1.18762913243900     -0.14975324577443
  C   -2.57459806664073      1.18278178291197      0.14997517871338
  H   -0.66026188246264      2.14539448893806      0.29487533334161
  H   -0.57504870753913     -2.10309225917999     -0.27041897833691
  C   -3.25577390523512     -0.02368210384534     -0.00061475706209
  H   -3.12780536878840      2.10748274929947      0.27126337890647
  H   -4.33965300645383     -0.04147531001614     -0.00173846620009
  C   1.01037427600057      0.04574282515351     -0.00079173614831
  C   1.87500166485941      1.13095301577140     -0.25266028980451
  H   1.61362093587454      2.14488199062612     -0.50697198698001
  C   -2.53332391031832     -1.20761572738273     -0.14665762756606
  H   -3.05664713201681     -2.14990386250565     -0.26557131520744
  C   3.15051539456861      0.61304896162782     -0.13639271636348
  H   4.12684375317391      1.05671398663876     -0.24858164704889
  N   2.99034788684975     -0.69939016928269      0.16411261371918
  H   3.71188091605848     -1.38398524787324      0.33025916927604
  N   1.71295704255328     -1.07921766347179      0.25647360373217
