19
Coordinates from ORCA-job mp2_opt
  C   -0.45592375524289      0.00854330475937      0.04905295026899
  C   -1.15382015594591      1.15649482803854     -0.34006722778573
  C   -1.17188054551184     -1.14613215056054      0.37966704135152
  C   -2.54597722354511      1.15679079359756     -0.37337137968691
  H   -0.59741932234494      2.04562865528808     -0.61774048972847
  H   -0.62760860244688     -2.04046002913279      0.66311706475591
  C   -3.25380617510837      0.00598871735826     -0.03087264801888
  H   -3.07832512437368      2.05163966335431     -0.67599060000878
  H   -4.33753181815280      0.00574426224764     -0.05891959152152
  C   1.01393025450100      0.00362018669554      0.05752854769144
  C   1.88288657278504      0.73573293380469      0.88809685603620
  H   1.61541925779861      1.39651092909233      1.69659250814908
  C   -2.56363599748945     -1.14598366510121      0.34305929496385
  H   -3.11034171167316     -2.04511406640319      0.60445410542095
  C   3.15588658708112      0.40934702455242      0.45651301348059
  H   4.13622823124230      0.71150365296553      0.78910891424227
  N   2.98439991232457     -0.45920579260783     -0.56972097448364
  H   3.69993148055486     -0.89638992170859     -1.12977199635811
  N   1.70206613554754     -0.72387632624012     -0.84762938876877
