19
Coordinates from ORCA-job mp2_opt
  C   -0.45463314992425      0.00116149016805     -0.01352051710344
  C   -1.16081619900111      1.15522369412425      0.34221499554978
  C   -1.16392690885451     -1.15815637955589     -0.34536830408736
  C   -2.55255289475103      1.15636788232823      0.33967412270629
  H   -0.60688587627079      2.04753300848822      0.61253847672985
  H   -0.61688769766641     -2.05370161101308     -0.62149073036361
  C   -3.25407934109359      0.00067587804005     -0.00130709916699
  H   -3.09135103969978      2.05651898569325      0.61384122203078
  H   -4.33813778887353      0.00176972114409     -0.00029069211582
  C   1.01068565067236     -0.01559019093374      0.02673248762694
  C   1.85317979392213     -0.93905329635498      0.67476119962736
  H   1.56164611259374     -1.77150283868182      1.29444716661864
  C   -2.55625956243988     -1.15622609739765     -0.34372093889872
  H   -3.09703932434232     -2.05694026243876     -0.61206965365181
  C   3.13862933265426     -0.52765041481434      0.37408359887240
  H   4.10783816038081     -0.90965904375012      0.65272727936572
  N   3.00020565074539      0.56947093349075     -0.41039760098946
  H   3.73359943221453      1.12302629501107     -0.82576512515325
  N   1.72777164973396      0.90589724645241     -0.65117688759732
