19
Coordinates from ORCA-job mp2_opt
  C   -0.45232475208363      0.02376241451837      0.00001586288840
  C   -1.18840609262140      1.21449573436354     -0.00005114342169
  C   -1.14135750577937     -1.19593868285454      0.00001378139252
  C   -2.57966578352939      1.18777479426831     -0.00008430432034
  H   -0.67349969988870      2.16865681961045     -0.00006440582785
  H   -0.57303305477559     -2.11863289736776      0.00004838171417
  C   -3.25866638729759     -0.02900058059938     -0.00006534596415
  H   -3.13427659116065      2.11958574715908     -0.00012587484810
  H   -4.34247758928811     -0.04964093305673     -0.00008532440567
  C   1.01128033237790      0.04987289913787      0.00004142478672
  C   1.87984700641627      1.16136555090056      0.00024294040646
  H   1.62771608049802      2.20868905497699      0.00042304276930
  C   -2.53173143170049     -1.21900825241167     -0.00001763080783
  H   -3.05139907942392     -2.17081638010966     -0.00001292672423
  C   3.15406040696676      0.62790410291457     -0.00028517396795
  H   4.13137138641056      1.08325835263947     -0.00053790925095
  N   2.99077467958732     -0.71777540948450     -0.00003495738052
  H   3.71005156360700     -1.42470190124850     -0.00011439592724
  N   1.71322451168501     -1.10492143335650      0.00010595888897
