19
Coordinates from ORCA-job mp2_opt
  C   -0.45771894646120      0.00261794547707      0.02382973323094
  C   -1.16269427400719      1.19880671236883     -0.14111668568271
  C   -1.16687500663546     -1.19425755173728      0.16346110806954
  C   -2.55529058766516      1.19867181540321     -0.15896128029586
  H   -0.61161737546860      2.12571505889062     -0.25931821358502
  H   -0.61850090184313     -2.12244838783804      0.28305554139816
  C   -3.25600582354303      0.00236011923041     -0.01586062085045
  H   -3.09354649597908      2.13098453851999     -0.28858160208595
  H   -4.34003958067700      0.00227597974339     -0.03094100510022
  C   1.01465276703529      0.00235037495337      0.04138810062285
  C   1.87242302031022      0.25544836264730      1.12779584433809
  H   1.59380687594219      0.48366136265073      2.14373554414094
  C   -2.55931191827362     -1.19426969722773      0.14351658219133
  H   -3.10066766916296     -2.12761871619723      0.25078446088895
  C   3.15137698634568      0.14128418573132      0.61275955110059
  H   4.12716910868382      0.24506804926493      1.05991344870797
  N   2.99383542158426     -0.15887515023034     -0.69905326515857
  H   3.71632990183053     -0.30889245894386     -1.38626814905869
  N   1.71468149798444     -0.24834454270669     -1.08474509287189
