19
Coordinates from ORCA-job mp2_opt
  C   -0.45244956311051     -0.02394717243013      0.00182075586299
  C   -1.14116846025512      1.19326351869552      0.07995173044767
  C   -1.18734237789469     -1.21262335008915     -0.08013848166865
  C   -2.53160295459296      1.21598302293431      0.07908976723224
  H   -0.57239680073263      2.11355734356214      0.14329674221987
  H   -0.67033340469490     -2.16251049617123     -0.15948926910552
  C   -3.25774077043818      0.02780051848775      0.00341613469944
  H   -3.05188788510496      2.16541046895340      0.14109134706154
  H   -4.34155594407603      0.04807507822413      0.00502465003202
  C   1.01072907489037     -0.04950026932568     -0.00216740589293
  C   1.87831225644163     -1.15350794479320      0.13191683252291
  H   1.62334285029413     -2.19143276507987      0.26748416095822
  C   -2.57869209993750     -1.18636388963506     -0.07654634976371
  H   -3.13339114937240     -2.11592345445155     -0.14050597739744
  C   3.15274984992245     -0.62394654943171      0.07259879522940
  H   4.12975188645101     -1.07602823576976      0.13305906360535
  N   2.99017304078829      0.71280390838639     -0.08379539621504
  H   3.71026443598020      1.41344727795200     -0.17093533710800
  N   1.71250801544179      1.09793998998172     -0.13371376272036
