19
Coordinates from ORCA-job mp2_opt
  C   -0.45241336828457     -0.02385586706930     -0.00181802006121
  C   -1.14110423619628      1.19336924981100     -0.07995962671248
  C   -1.18733353800689     -1.21251304304021      0.08014396104706
  C   -2.53153854535729      1.21611926717838     -0.07910608707081
  H   -0.57231072567907      2.11365019163840     -0.14330455102501
  H   -0.67035168784783     -2.16241376703903      0.15951039627037
  C   -3.25770461283176      0.02795320889315     -0.00343343267309
  H   -3.05180314512636      2.16555709815048     -0.14111814465132
  H   -4.34151892936288      0.04825582629183     -0.00504731089871
  C   1.01076307813278     -0.04945473634783      0.00218711675883
  C   1.87830282528568     -1.15349984925959     -0.13188834699332
  H   1.62330439406371     -2.19141645988797     -0.26746068900180
  C   -2.57868309561753     -1.18622468520421      0.07654451918520
  H   -3.13339803346059     -2.11577470589648      0.14050749838616
  C   3.15276092765652     -0.62398776093049     -0.07256566248467
  H   4.12974057062278     -1.07611735002744     -0.13302356077201
  N   2.99023654930504      0.71276902129979      0.08383258979752
  H   3.71035338445851      1.41338945624731      0.17094646950119
  N   1.71258718824603      1.09795490519220      0.13374188139813
