19
Coordinates from ORCA-job mp2_opt
  C   -0.45467275018793      0.01561491720690     -0.04806517210306
  C   -1.15726526564999      1.16058570357475      0.34236432121697
  C   -1.16589553854373     -1.14230548533106     -0.37894019558373
  C   -2.54923322494004      1.15507175412800      0.37554055517824
  H   -0.60472336153062      2.05054823552445      0.62533608850879
  H   -0.61705323910607     -2.03309932151171     -0.66434865800111
  C   -3.25255983464207      0.00174982740728      0.03220342078147
  H   -3.08508811148324      2.04702193532340      0.68055630020613
  H   -4.33626837515280     -0.00291775440305      0.06030780025682
  C   1.01268880637054      0.01522462505986     -0.05397597536663
  C   1.88335131884721      0.88101838079833     -0.74259360200384
  H   1.61833129022588      1.66967271275380     -1.42800461803222
  C   -2.55734637011408     -1.14722690253517     -0.34225572943167
  H   -3.10054576916255     -2.04794788983204     -0.60562027060444
  C   3.15531205472173      0.48353289049887     -0.37288968239634
  H   4.13627335927722      0.83694336031346     -0.64822341476795
  N   2.98221854942486     -0.55075815445943      0.48612586990319
  H   3.69696238787954     -1.07908818211347      0.96241071141765
  N   1.69969407376614     -0.85939665240316      0.71134525082172
