19
Coordinates from ORCA-job mp2_opt
  C   -0.45288533527800      0.01908824984642      0.03222073698662
  C   -1.16942178878090      1.18457523716889     -0.26247493049848
  C   -1.15257875121803     -1.16610260216475      0.28591222291757
  C   -2.56119068302516      1.16978112617125     -0.28228495288036
  H   -0.63017005668003      2.09804181292685     -0.49085203345336
  H   -0.59301543803597     -2.06861471157580      0.50475548460117
  C   -3.25279273868340     -0.01178737755906     -0.02093441186895
  H   -3.10633074227803      2.07805811783012     -0.51389007261546
  H   -4.33662177392065     -0.02354444963242     -0.03911517062574
  C   1.01043980893861      0.03206853012004      0.03589084208499
  C   1.87695230190276      1.04635046809498      0.48941636891443
  H   1.61084924136531      1.98083287639459      0.95606577339547
  C   -2.54359778724299     -1.17927873018249      0.25943155269732
  H   -3.07689939549963     -2.10147807879649      0.46177282649367
  C   3.15089867116688      0.57035944259361      0.24279089748508
  H   4.12937618782470      0.98409561875710      0.42777526916087
  N   2.98525360980265     -0.65017794548775     -0.32426735800458
  H   3.70411889217416     -1.27942803581510     -0.64674901386538
  N   1.70540477746769     -1.00853054869000     -0.47212603092489
