19
Coordinates from ORCA-job mp2_opt
  C   -0.45529429771346      0.01315787252535      0.04950523541873
  C   -1.15540177802211      1.15719012260687     -0.34755512515139
  C   -1.16886408602386     -1.14131971748976      0.38650305167541
  C   -2.54745604318214      1.15416265562770     -0.38159006932084
  H   -0.60080740276755      2.04512635770647     -0.63273472930390
  H   -0.62226233635674     -2.03212160523089      0.67634611020321
  C   -3.25303222671691      0.00398548323198     -0.03232228619336
  H   -3.08153688813590      2.04560101105083     -0.69115171274731
  H   -4.33672730531877      0.00115563089613     -0.06115570904356
  C   1.01330108086846      0.01005224406533      0.05629945265802
  C   1.88377305342404      0.81690967270402      0.81288116094517
  H   1.61817437057417      1.54927755710693      1.55790213687855
  C   -2.56043881358963     -1.14415981568500      0.34911074013593
  H   -3.10539443678375     -2.04263120863019      0.61641489441314
  C   3.15590416184569      0.45043081080948      0.41237990661859
  H   4.13683959642939      0.78104322219034      0.71484784890681
  N   2.98265358969267     -0.51078638079607     -0.52742406702355
  H   3.69738615801399     -0.99928638494730     -1.04447051475390
  N   1.69995260376242     -0.79993252774224     -0.77727432431576
