19
Coordinates from ORCA-job mp2_opt
  C   -0.45230379019832      0.02378866764815     -0.00757320571849
  C   -1.18813141312730      1.21411171009513     -0.04484465749591
  C   -1.14115860349045     -1.19515888977458      0.03700343736685
  C   -2.57942215949504      1.18750867809611     -0.03927632378780
  H   -0.67272617572135      2.16710073494229     -0.08763531241996
  H   -0.57268309435370     -2.11722235857871      0.06888074695296
  C   -3.25835185863218     -0.02849956577714      0.00394190798161
  H   -3.13409712860589      2.11880077247314     -0.06938718242646
  H   -4.34215918172712     -0.04901726868081      0.00803669999348
  C   1.01118195550892      0.04979415701511     -0.00685653927501
  C   1.87938211744116      1.15910671684722      0.06639399667010
  H   1.62641357974562      2.20387254758976      0.13716317723700
  C   -2.53154770109918     -1.21805598726643      0.04042978248059
  H   -3.05130602307287     -2.16918548371059      0.07495094765887
  C   3.15369315118003      0.62656447544329      0.03957332960926
  H   4.13086431376126      1.08091158196893      0.07449170577812
  N   2.99069701197136     -0.71668406826851     -0.04209480964491
  H   3.71024788558587     -1.42201105023721     -0.08507390789168
  N   1.71316611432915     -1.10315136982517     -0.07253479306861
