19
Coordinates from ORCA-job mp2_opt
  C   -0.45735688240863      0.00367630518365      0.00522251309256
  C   -1.16914982898874      1.17406078442768     -0.27518999644851
  C   -1.16057814796219     -1.17471557670002      0.27422866689630
  C   -2.56159299112311      1.17024604406235     -0.26956920142155
  H   -0.62201509931589      2.08577329166964     -0.48976699913340
  H   -0.60805123545142     -2.08346543219800      0.48866333045507
  C   -3.25640246662926     -0.00624748780045      0.00613769890205
  H   -3.10475309432828      2.08374981825891     -0.48448242329985
  H   -4.34051406750559     -0.00935594271689      0.00938150544176
  C   1.01407113193864     -0.00049765989409     -0.03081381039939
  C   1.85571249277009     -0.48720105042337     -1.04830562408282
  H   1.56176950744443     -0.92192924191050     -1.98985690009477
  C   -2.55329684224359     -1.17847894154406      0.27839109452002
  H   -3.08996679939719     -2.09548603350333      0.49474910147116
  C   3.14196515417383     -0.27669936552784     -0.58489254292799
  H   4.11093743782564     -0.48015609152542     -1.01225255340610
  N   3.00393010977110      0.29670090930788      0.63510481427677
  H   3.73686298679375      0.58138528416104      1.26624656775852
  N   1.73076163463639      0.47483138667282      1.00917875840017
