19
Coordinates from ORCA-job opt
  C   0.92053983308102      1.03164140617603     -0.02676633230080
  N   0.06608501865810      0.64831855280880     -1.02015797421016
  C   1.59035026889180      2.32271011215237     -0.18812177567540
  C   1.08670307466940      0.21095752983969      1.05732317360665
  C   -0.66891389515059     -0.54245614365274     -1.07547961833719
  H   -0.09487770409420      1.28037885359004     -1.79815257695982
  C   -0.46329200966238     -1.38239207205816      0.08110330987021
  O   -1.40124389033477     -0.77340092988329     -2.03436883468515
  C   0.37246798748445     -1.01098137704773      1.09734243727645
  H   -1.01250665292794     -2.31483832019782      0.10443308801201
  H   0.49880501843307     -1.66987712447100      1.95004936005561
  H   1.77461942461386      0.49616782814790      1.84110338826976
  C   1.63338347843388      3.32711228760724      0.80998442638652
  C   2.21055435043255      2.72867272614370     -1.36049685633364
  C   2.29396954300127      4.45898788854394      0.38697400345679
  H   1.17985976675323      3.22205198843975      1.78717733814359
  S   2.84703150293043      4.29844917573326     -1.21636277965033
  H   2.46197634340660      5.37659555507406      0.93137493215241
  H   2.35298954138020      2.15690306305395     -2.26715970907752
