19
Coordinates from ORCA-job opt
  C   0.98751239800625      0.99431882985073     -0.00957713282238
  N   -0.36037224515527      0.98653456429706     -0.22756118822732
  C   1.67231385614744      2.28782970514827     -0.04863324925765
  C   1.60678115564632     -0.20665777348260      0.23056369566654
  C   -1.20949544258073     -0.12711548432264     -0.23606882133634
  H   -0.84661975016087      1.85644355738658     -0.40766135175838
  C   -0.51681631338079     -1.36557892432649      0.02034774344844
  O   -2.41079203820484      0.02001182568439     -0.44826404196601
  C   0.83205434629358     -1.38871203269462      0.24209882396565
  H   -1.11520599155946     -2.26732974511261      0.02795238818940
  H   1.32346769550845     -2.33721050625522      0.43213057094719
  H   2.67162610454376     -0.24239463294338      0.40768256738654
  C   1.04626690360410      3.53912173212760     -0.29555897732566
  C   3.03692123517114      2.44330564928472      0.15475901887965
  C   1.93145354702827      4.59287983968228     -0.27426940683311
  H   -0.00847256644543      3.69240332751901     -0.48446827743781
  S   3.51697537344062      4.06701040942858      0.04400035778834
  H   1.71914419089920      5.64018066529294     -0.43031536623512
  H   3.77175554119829      1.67995799343541      0.36264364692803
