19
Coordinates from ORCA-job opt
  C   0.69180871059862      1.14756387478238      0.03030736923242
  N   1.24443991940224      0.15615124261525     -0.72881349511397
  C   1.32966136533115      2.46106641112690     -0.02102156134263
  C   -0.39109407857629      0.84512811484935      0.81537390842524
  C   0.81270039461376     -1.17349185349282     -0.81452865976054
  H   2.01115237517388      0.37992227421693     -1.35414909379492
  C   -0.33279704258933     -1.44767526522530      0.01988319273806
  O   1.39460660540615     -1.96352125341467     -1.55349095956334
  C   -0.90376702687295     -0.47310939601564      0.79020000650205
  H   -0.71789493154375     -2.45896130238611     -0.00192540884652
  H   -1.76237715118427     -0.71753862712341      1.40685534708290
  H   -0.81075280475169      1.60291561080562      1.46199922523236
  C   2.70076813061380      2.68358173201509     -0.31193738305555
  C   0.64897112871700      3.65241608277853      0.18032407938231
  C   3.03000317547293      4.02068027059700     -0.31146239364678
  H   3.43291688785586      1.90068536719182     -0.46686387128051
  S   1.67742148325793      4.99570288816587      0.02950057585238
  H   3.99957152674667      4.46688286099686     -0.47658733145596
  H   -0.40683966767172      3.78660196751633      0.36613545341300
