19
Coordinates from ORCA-job opt
  C   0.73151548052992      1.12403139275943      0.01774640830969
  N   0.95066150466367      0.23962568997549     -0.99956383092974
  C   1.35445996847891      2.45067770764064     -0.11290561692612
  C   -0.04559996676918      0.73984921310776      1.07570397143713
  C   0.46240732798642     -1.07039586913002     -1.08503970204266
  H   1.51885744237500      0.53203923997148     -1.78842296427301
  C   -0.35008051352595     -1.44000792240006      0.05083492652205
  O   0.73457324192699     -1.77191629269050     -2.05590122522426
  C   -0.58852484283017     -0.56958135578667      1.07695092382165
  H   -0.76024136271309     -2.44174484052497      0.04434512592226
  H   -1.20514745191491     -0.88631091802371      1.91159561423068
  H   -0.22219383358514      1.43487472156198      1.88454281036239
  C   2.69520918502573      2.74455668574835      0.23808348145601
  C   0.68084692288345      3.56624298929158     -0.57926097505187
  C   3.01251395579261      4.06909032543414      0.02995922801766
  H   3.38887072649032      2.01275770248776      0.63243683220533
  S   1.68374170004923      4.94023272630143     -0.58549881641374
  H   3.95279675483207      4.56729982632345      0.21500334812115
  H   -0.34616723969588      3.62368197795242     -0.91081053954462
