19
Coordinates from ORCA-job opt
  C   0.93971263062686      1.02057662089335     -0.01394847762659
  N   -0.23604720341155      0.87040465222588      0.66354597681824
  C   1.57638298600361      2.33955486351607      0.04918778719303
  C   1.43273799770298     -0.03748446526797     -0.72954409969066
  C   -1.01281539306609     -0.29269509059613      0.73869394013182
  H   -0.61899585639393      1.66845084328839      1.16086069647757
  C   -0.45815219466506     -1.38672977578162     -0.02355596587152
  O   -2.05108310228553     -0.30228101195085      1.39521589238790
  C   0.70744585066452     -1.25400429076056     -0.72550216032477
  H   -1.01763648234087     -2.31332313876070     -0.01490053257139
  H   1.09019933743556     -2.10033855231936     -1.28623568140049
  H   2.36829069095414      0.06927949707430     -1.26078191379589
  C   1.86261757280022      3.14060206692636     -1.08319408565313
  C   1.90078347803803      2.98033225357855      1.23525671116011
  C   2.41383881745069      4.35554454618569     -0.74006758436763
  H   1.65857570510830      2.83450963441522     -2.10122746954351
  S   2.56716862133928      4.51785575441550      0.94878014207021
  H   2.71825994092597      5.15940481333377     -1.39406398280379
  H   1.80721660311286      2.59533977958408      2.24127880741049
