19
Coordinates from ORCA-job opt
  C   0.73198876760719      1.12442192160976      0.01685626277647
  N   0.99796379891091      0.22149410731301     -0.97271299771623
  C   1.35256178953734      2.45082696482212     -0.11254605615498
  C   -0.09629615654880      0.76016831620553      1.04291238858003
  C   0.51809106051648     -1.09184345236535     -1.05379095807451
  H   1.59776869872426      0.50089485708431     -1.74266451053967
  C   -0.34846761401760     -1.44025465907880      0.04835583384346
  O   0.83769352289246     -1.81211525351949     -1.99602208041183
  C   -0.63827563833615     -0.54952815662011      1.04338645821140
  H   -0.75680998522141     -2.44272619553967      0.04202302712086
  H   -1.29421564246058     -0.85084767883885      1.85339806410445
  H   -0.30812570285566      1.46923520677786      1.83085953899056
  C   2.71587251672829      2.72799745094722      0.15753807679121
  C   0.65076206902730      3.58789209039987     -0.47328444397434
  C   3.02212426782616      4.06060831423656     -0.01040727509817
  H   3.43233654435304      1.97908051280349      0.47092770378894
  S   1.65586605167106      4.96017026527183     -0.48762260405086
  H   3.97405625382696      4.55026135396253      0.13331815125489
  H   -0.39639360218124      3.65926303452817     -0.73072557944169
