19
Coordinates from ORCA-job opt
  C   0.94950917614866      1.01160138402836     -0.02269659154161
  N   -0.15976809687202      0.81257376530982     -0.79406686330884
  C   1.62944799213929      2.30889791429546     -0.16345881999096
  C   1.36430958976671      0.01241672764040      0.81417269500299
  C   -0.96056770327841     -0.33624773444415     -0.82205807138975
  H   -0.45826524741356      1.55218475915267     -1.42218008852899
  C   -0.49298350574286     -1.36634732958912      0.07639691998280
  O   -1.94006910720992     -0.39198671712736     -1.56114356071205
  C   0.61810712001447     -1.19219054179709      0.85264354711876
  H   -1.06875357923448     -2.28268243168216      0.10025877579037
  H   0.93643373260232     -1.99133383443639      1.51386260882816
  H   2.24107306516367      0.16398208037619      1.42799660058623
  C   1.24073289306144      3.49442521399822      0.50781068982818
  C   2.74436627611527      2.50240334882539     -0.96047471305570
  C   2.06149581400719      4.55943376130688      0.20700028495154
  H   0.39899298317242      3.55416545275152      1.18612918756617
  S   3.29275384435426      4.11075797956759     -0.88204021669810
  H   2.00324851015429      5.57246026272415      0.57709501347148
  H   3.24843424305126      1.77048393909959     -1.57544739790069
