19
Coordinates from ORCA-job opt
  C   0.98142557585696      0.99814275995179     -0.02511373212479
  N   -0.27714297181733      0.92602874125076     -0.55030329556283
  C   1.66743358665196      2.28522138266712     -0.12588363740415
  C   1.51972941015601     -0.11925628117774      0.55700524790541
  C   -1.11673556298811     -0.19475447817275     -0.55598519480756
  H   -0.66028564236198      1.73782410781679     -1.02398151063016
  C   -0.51351446072263     -1.35100839561813      0.06442777623771
  O   -2.23352136166124     -0.12819049596416     -1.06306982985657
  C   0.74857418000220     -1.30625532483257      0.58767456979602
  H   -1.11056102169236     -2.25356219636957      0.08764893452335
  H   1.16583013169685     -2.19616674646022      1.04722935829183
  H   2.50103412044913     -0.06442836311314      1.00739341426901
  C   1.06044341123306      3.54047779710198      0.13550779809955
  C   3.00418715758249      2.41678058639654     -0.46484935858773
  C   1.94125119657917      4.58923080698060     -0.00890979482208
  H   0.03166281946468      3.66534184613884      0.45052017152857
  S   3.49089832360240      4.04557035427427     -0.46039515908923
  H   1.75549491124606      5.64189546887510      0.14599918230004
  H   3.69229519672267      1.63210943025447     -0.74511394006637
