19
Coordinates from ORCA-job opt
  C   0.98602229953477      0.99680957194419      0.00652517410391
  N   -0.37935817640458      1.00760933075134      0.02424320998695
  C   1.66135123451646      2.29238663496317     -0.00220760798094
  C   1.63303361886926     -0.21133937723749     -0.03140883204253
  C   -1.22567225331162     -0.10830601020661      0.01658088097977
  H   -0.86590612777349      1.89414573592355      0.10602004271669
  C   -0.50591523644289     -1.35934244678540     -0.01681566987950
  O   -2.44437403593523      0.04203293345825      0.04635257613874
  C   0.86061374876593     -1.39682948867113     -0.03322660688838
  H   -1.10310839424532     -2.26203342569879     -0.02154863753086
  H   1.36595713257553     -2.35656555280652     -0.06098081995149
  H   2.71192152750751     -0.23703785834533     -0.09455309905352
  C   1.14221724108400      3.46871575972097     -0.60251126347073
  C   2.89058723008397      2.52055545967274      0.59688740712618
  C   1.98306040221349      4.54946495169348     -0.45669049078130
  H   0.21447213716193      3.51592815856648     -1.15942983104845
  S   3.38746048839579      4.13448531391361      0.41105266132892
  H   1.84830072606748      5.55289774142683     -0.83277617996680
  H   3.48783743733701      1.82142356771664      1.16428808621333
