19
Coordinates from ORCA-job opt
  C   0.86385162902610      1.06451404703122     -0.03624930603320
  N   0.42792585803321      0.41792739281156     -1.15727111253982
  C   1.48742617809279      2.37402231236622     -0.20617495108242
  C   0.64182010697657      0.47135302621328      1.18122866416758
  C   -0.22365666791078     -0.81929955612037     -1.21631393085909
  H   0.63113092224600      0.80928496783926     -2.07000872375187
  C   -0.43749758421625     -1.40706562712391      0.08458236385476
  O   -0.54362595755919     -1.29512231897024     -2.30267423297441
  C   -0.01287945630142     -0.78207592852619      1.22341576124209
  H   -0.93730775518961     -2.36677285628715      0.10858995226424
  H   -0.18709534560236     -1.25234643060736      2.18554232266622
  H   0.94026245109143      0.97313338906955      2.08979066964970
  C   2.19251568108100      3.05774877427999      0.81917133026774
  C   1.42276973965802      3.13288443785173     -1.36748246670302
  C   2.64727357863705      4.29154357612601      0.41889810085537
  H   2.38818358644197      2.65076414561605      1.80194673840881
  S   2.21333656238608      4.62747908338512     -1.19359323216962
  H   3.22281465531137      5.00493414329288      0.99020307457086
  H   0.91125081779799      2.91209442175233     -2.29380102183393
