19
Coordinates from ORCA-job opt
  C   0.99079249217133      0.99258141530519     -0.02057218079273
  N   -0.34774348986197      0.98009914139478     -0.29001166003252
  C   1.67319252230182      2.28700457103514     -0.04555650339610
  C   1.59528555729592     -0.19761075586445      0.29779982829018
  C   -1.19631976756212     -0.13411795517323     -0.30336154178327
  H   -0.81370627465701      1.83803930759186     -0.56025904222425
  C   -0.51846698283033     -1.36244995078178      0.03093571501871
  O   -2.38457011497009      0.00368025618900     -0.58358658107297
  C   0.81923051281037     -1.37889166323915      0.31288048137277
  H   -1.11789966836144     -2.26350017398288      0.04133907370929
  H   1.29874775384664     -2.32006160491069      0.56095306997682
  H   2.64555154513634     -0.22082117259357      0.54946861130862
  C   1.03436519085785      3.54556387990851     -0.20629723689869
  C   3.05169030829373      2.43105507931477      0.03401531841948
  C   1.92335719008302      4.59625714633872     -0.22684576050333
  H   -0.03438012542916      3.70603461060699     -0.26926885493513
  S   3.52805333330842      4.05675984284036     -0.06531141916618
  H   1.70302290131048      5.64938215622019     -0.32015450456054
  H   3.79829611625618      1.65599586980022      0.12363318726983
