19
Coordinates from ORCA-job opt
  C   0.97183173836709      1.00282810971162     -0.02515041249802
  N   -0.26246529849658      0.90661522745976     -0.60179097435275
  C   1.65748864288610      2.29042693668920     -0.14246871939432
  C   1.49545181132038     -0.09389974288192      0.60623351796419
  C   -1.09505074599406     -0.21935108800741     -0.60750516582890
  H   -0.63343814360778      1.70621754203157     -1.10526454170804
  C   -0.50896338205413     -1.35362100099700      0.06803731933174
  O   -2.19200117407941     -0.17559820085075     -1.15845249631750
  C   0.73068440930123     -1.28559351536399      0.63981716104291
  H   -1.10119476102638     -2.25931993576110      0.09286080316364
  H   1.13498757840906     -2.15974924072394      1.13942478840964
  H   2.46068683726519     -0.01974651247372      1.08747794345287
  C   1.08220058273594      3.53919016103138      0.20600641841361
  C   2.97017408304120      2.42237248481203     -0.56322168988860
  C   1.96138332866449      4.58585413595064      0.03820092765317
  H   0.07600851129545      3.65723996901189      0.58910188146153
  S   3.47207926875222      4.04687670431199     -0.53609788056613
  H   1.79718710665570      5.63409342978706      0.24032233714958
  H   3.63145060656428      1.64016453626269     -0.90773021748863
