19
Coordinates from ORCA-job opt
  C   0.69085927839034      1.14796500369245      0.03068824136028
  N   1.26280471189984      0.14855999429182     -0.70317596979978
  C   1.33314163475331      2.45993011789064     -0.01049138044610
  C   -0.41145616957840      0.85099854371341      0.79091471016763
  C   0.83136287885905     -1.18108886822999     -0.79066268320366
  H   2.04481597542391      0.36452141370144     -1.31169978300572
  C   -0.33491244432211     -1.44843558961528      0.01629655968962
  O   1.43123447142629     -1.97651290795349     -1.50928258453115
  C   -0.92412432525828     -0.46690796273647      0.76372737835350
  H   -0.72035527707191     -2.45953310399440     -0.00725710660129
  H   -1.79838479009389     -0.70528692265044      1.36043354842335
  H   -0.84890164794211      1.61273025386836      1.42071643605996
  C   2.69245846080931      2.68726472957497     -0.35001719137032
  C   0.66349855466944      3.64943470772138      0.23660117323305
  C   3.02456985469048      4.02352360022724     -0.33650163329359
  H   3.41966583203955      1.90928406176444     -0.54679223406962
  S   1.68804355496062      4.99372917507239      0.07304521990291
  H   3.98830494197102      4.47083740898753     -0.53017091092513
  H   -0.38412349562645      3.78398634467401      0.46342821005604
