19
Coordinates from ORCA-job opt
  C   0.82336124847749      1.08458256932309     -0.01918986014262
  N   0.53408669936446      0.38054430108291     -1.15265463273000
  C   1.43818720542501      2.39844201665759     -0.18423699070724
  C   0.49616627309965      0.53819173018771      1.19515052918598
  C   -0.08179028024085     -0.87467512415967     -1.22453616145231
  H   0.83374722705989      0.74685072067799     -2.05027700508922
  C   -0.41312016722765     -1.41362077597943      0.07339939450450
  O   -0.27625761402021     -1.40523213587010     -2.31523460564706
  C   -0.12521273570078     -0.73299326119818      1.22352538650631
  H   -0.88673935886649     -2.38678570226377      0.08725259283539
  H   -0.38712267253082     -1.17117192274503      2.18093278161282
  H   0.68328691927758      1.09620129012312      2.10166293329001
  C   2.32392967574942      2.98585791918545      0.75426544481796
  C   1.21643937194523      3.23055924313284     -1.27285534694167
  C   2.74969782024960      4.23532987383320      0.36602169950798
  H   2.65791232118266      2.49571767420706      1.65942288835784
  S   2.07457873335627      4.69098638590258     -1.13021312131873
  H   3.43839484181594      4.89257372356749      0.87628518690173
  H   0.54895549158360      3.07364247433513     -2.10892011349164
