19
Coordinates from ORCA-job opt
  C   0.72883113189903      1.12525913404358      0.01883167011292
  N   0.91175120674130      0.25603805173054     -1.01849604158118
  C   1.35339295939937      2.45165981776883     -0.11225040818327
  C   -0.00597617346148      0.72336826735548      1.10007609295832
  C   0.41831464123633     -1.05189641591381     -1.10735325293594
  H   1.45415932605220      0.55977332015951     -1.82112019342615
  C   -0.34994850423747     -1.43996587585008      0.05281981338264
  O   0.65323229228488     -1.73751447309592     -2.09906360607272
  C   -0.54787208738340     -0.58645823208159      1.10154499087184
  H   -0.76023564351553     -2.44165196177370      0.04634020435676
  H   -1.13212555363096     -0.91682135002922      1.95400345085565
  H   -0.15470117560701      1.40644983879339      1.92454303823585
  C   2.67324366679333      2.75896388448736      0.30001234105415
  C   0.70995805508475      3.54739754579622     -0.66139338627842
  C   3.00365336545447      4.07504787784246      0.06031354590346
  H   3.34325951307842      2.04186727764378      0.75710271611067
  S   1.71309517501474      4.92102101687426     -0.66186193379093
  H   3.93372938317199      4.57984780188943      0.27642210222161
  H   -0.29725957837498      3.59261547435949     -1.05067114379526
