19
Coordinates from ORCA-job opt
  C   0.99390513365106      0.99156303438400     -0.02544298307889
  N   -0.31538656507688      0.96326373403688     -0.41202258369468
  C   1.67792720795476      2.28203077793777     -0.07323271124576
  C   1.56711138845762     -0.17042357278030      0.42450943610616
  C   -1.16341531730690     -0.15139846353471     -0.42354165612033
  H   -0.73750277105851      1.80091021847131     -0.79756934597604
  C   -0.51902289289483     -1.35351848078651      0.04817395687677
  O   -2.32151259634287     -0.03930450478785     -0.81750859509140
  C   0.78921850357731     -1.35147936159009      0.44531534206906
  H   -1.12082942170578     -2.25297524682134      0.06382733589797
  H   1.23981296680159     -2.27382247892755      0.79668561656578
  H   2.58584889819365     -0.16047147051234      0.78550357153372
  C   1.03059418529873      3.54483472589542     -0.04179473632918
  C   3.05249279087119      2.41678068054181     -0.20292705780373
  C   1.91631940158119      4.59548483846959     -0.12951899111494
  H   -0.03403792000198      3.69141366793849      0.09190810791694
  S   3.52176185989147      4.04765880168028     -0.26281264594086
  H   1.69782712245711      5.65284501111025     -0.10437980638153
  H   3.78739002565206      1.63160808927489     -0.30537125418906
