19
Coordinates from ORCA-job opt
  C   0.71177748143093      1.13702675689246      0.02300144863555
  N   1.13545932259058      0.18493860552780     -0.85976686657903
  C   1.33112226482690      2.45877371846599     -0.08288499642710
  C   -0.26051034887579      0.81258096666249      0.93130891134992
  C   0.68838565053153     -1.13995736359264     -0.93598610786036
  H   1.82626221613539      0.43634767204917     -1.55980699626497
  C   -0.33472449141796     -1.44346147518699      0.03743840986333
  O   1.15653247812950     -1.90413689962757     -1.77600176909757
  C   -0.78503354897817     -0.50305956550266      0.92126647013073
  H   -0.72764929161319     -2.45198733890442      0.02601422983903
  H   -1.55401281263260     -0.77148643808558      1.63808933245707
  H   -0.58409550016581      1.55206008781260      1.65050060687138
  C   2.73062432464069      2.68881115658989     -0.09941572451954
  C   0.60979535596459      3.63995379963444     -0.12850817558645
  C   3.04029250465706      4.02922862844676     -0.16279104723992
  H   3.47466917349279      1.90401909387989     -0.03926063824009
  S   1.63640360139842      4.99374589307634     -0.19913778504446
  H   4.01785798403586      4.48846909633171     -0.17190809664878
  H   -0.46465536415073      3.75313260553033     -0.15234920563875
