19
Coordinates from ORCA-job opt
  C   0.86087231447294      1.06578899193477     -0.03849658794340
  N   0.38233151614103      0.43758984181837     -1.15264129678328
  C   1.49036553464813      2.37331262832335     -0.20851588348918
  C   0.68474930961395      0.44906999934075      1.17519646562297
  C   -0.27232766783763     -0.79813667431147     -1.20919575009009
  H   0.53245835653013      0.85101938923038     -2.06541029520542
  C   -0.43562937101690     -1.41048283200882      0.08743823630570
  O   -0.63620910716444     -1.25175623875490     -2.29113144009506
  C   0.03078530513885     -0.80434504891624      1.21997590203557
  H   -0.93557043414888     -2.37003999971386      0.11397114616556
  H   -0.10634488084653     -1.29176576411011      2.17959239767134
  H   1.02610800182406      0.92759483145595      2.08086377019441
  C   2.13545249907827      3.08664103620761      0.83688121758972
  C   1.50204452319224      3.09816968462390     -1.39324445045823
  C   2.61912505613428      4.30647565511515      0.42926570754481
  H   2.26340602825465      2.71528561857634      1.84436682289152
  S   2.28673503250443      4.59517374617232     -1.21584369580771
  H   3.15682428721409      5.03690314097225      1.01570123078715
  H   1.06332169626732      2.84850099404426     -2.34897449693639
