19
Coordinates from ORCA-job opt
  C   0.87445993114420      1.05721918637920     -0.04519724662697
  N   -0.18254386913084      0.81413430974328      0.78401519935990
  C   1.49743465625554      2.37565488802291      0.03340441220518
  C   1.30005550389719      0.05668064083594     -0.88022968826241
  C   -0.90293066430072     -0.38148482081344      0.89277186079809
  H   -0.54319998946744      1.57088719362985      1.35606155180416
  C   -0.42207152653735     -1.41035867114732      0.00102421570986
  O   -1.84272268591045     -0.46686874892843      1.67921216264725
  C   0.62655581581630     -1.18770514781566     -0.84744161376102
  H   -0.94279290035901     -2.35879778353367      0.03083542668854
  H   0.95786288776259     -1.98495525534062     -1.50459586056310
  H   2.15662649387827      0.22083493675337     -1.51877710748081
  C   2.06201465599928      3.05606750753712     -1.07463817730519
  C   1.60695867771085      3.11483973107070      1.20292074630603
  C   2.58674599072199      4.28031163795536     -0.72845962639765
  H   2.05376763722347      2.67246616139893     -2.08658429246434
  S   2.39226708551409      4.59828433067480      0.93385475816743
  H   3.05467303155748      5.01077019771123     -1.37197797132389
  H   1.31533926822457      2.82702070586645      2.20360025049894
