19
Coordinates from ORCA-job opt
  C   0.95497299077866      1.01063644006787     -0.02576234135516
  N   -0.00987835432759      0.71264857109576     -0.94473350831848
  C   1.62902131287825      2.30734617309073     -0.17235797258943
  C   1.20844245476652      0.12097421153271      0.98281169763966
  C   -0.78391706638438     -0.45387600939696     -0.99286092157027
  H   -0.21304565998614      1.38703859523606     -1.67602264164771
  C   -0.48491887577943     -1.36867555194562      0.08400982049805
  O   -1.61589900813331     -0.60882786311379     -1.88323250188465
  C   0.46529896708185     -1.08449857165875      1.02466694672888
  H   -1.05595389007283     -2.28793108517497      0.10850036183799
  H   0.65948765881799     -1.79909892060349      1.81765918194948
  H   1.97399340164268      0.34796598456453      1.71160887304707
  C   1.47784012668882      3.38987767147491      0.72816894823660
  C   2.43049592668294      2.63734973607093     -1.25371157828539
  C   2.17842278672664      4.50660903484877      0.32755521473384
  H   0.87492463772461      3.34283336271321      1.62598099915592
  S   3.00043969439607      4.23507951737937     -1.13958463896367
  H   2.23924557286882      5.46797921372812      0.81604206907211
  H   2.71952832362982      2.00157149009062     -2.07893700828483
