19
Coordinates from ORCA-job opt
  C   0.69175419926081      1.14712786109658      0.03179929793163
  N   1.30385455810151      0.12844026363424     -0.64053182436513
  C   1.34265283160660      2.45665980333162      0.00822506047753
  C   -0.45703584774964      0.86575325132814      0.72733652609740
  C   0.87218743462017     -1.20098590741278     -0.73069375643953
  H   2.12712116243115      0.32175871474194     -1.19905070923335
  C   -0.34179653042494     -1.45020300588459      0.00768492666675
  O   1.51449054819504     -2.01125172549422     -1.39417212501527
  C   -0.97088811798027     -0.45098780442164      0.69692154477859
  H   -0.72933238543130     -2.46039745669399     -0.01858104887284
  H   -1.88184699944715     -0.67344369872537      1.24275276352559
  H   -0.93879903477578      1.63916621498888      1.30805904991851
  C   2.66651147639853      2.70176599321245     -0.44350894705194
  C   0.70747652332555      3.63603903754250      0.37175253354301
  C   3.00747331525604      4.03459684158885     -0.39300801394633
  H   3.37377136313418      1.94153878839177     -0.75030160125494
  S   1.72049752113638      4.98508324706083      0.18466211384961
  H   3.95193947262365      4.48823160308813     -0.65488692618106
  H   -0.31153249028055      3.76610897862669      0.70534213557175
