19
Coordinates from ORCA-job opt
  C   0.99306105572678      0.99161839813132     -0.02403064974229
  N   -0.33562601366035      0.97473360620381     -0.33823675098028
  C   1.67552368369451      2.28488870086354     -0.05226193916998
  C   1.58524820008069     -0.18850812221764      0.34917151598630
  C   -1.18411504595603     -0.13958391723614     -0.35248480777470
  H   -0.78367414697884      1.82438975596854     -0.66137662430576
  C   -0.51916660896443     -1.35875615586319      0.03806678659038
  O   -2.36111998851077     -0.01071794307974     -0.68011350199026
  C   0.80800578669972     -1.36934475073568      0.36629748326337
  H   -1.11989407441529     -2.25894668647904      0.05033049094508
  H   1.27650521064968     -2.30391581664844      0.65672758641384
  H   2.62313713003539     -0.19956692653457      0.64944796659459
  C   1.02956107410622      3.54657893680947     -0.13951409351755
  C   3.05652281786360      2.42385527319531     -0.06050610406051
  C   1.91830421571511      4.59677965276549     -0.18910739483111
  H   -0.04144137630747      3.70399923690611     -0.11816151091838
  S   3.52910332322708      4.05186396855489     -0.14644077109980
  H   1.69585088748653      5.65262451940194     -0.23479663120453
  H   3.80271586950787      1.64300826999402     -0.05321205019844
