19
Coordinates from ORCA-job opt
  C   0.69473971346421      1.14538284896333      0.03431362125451
  N   1.32832884652513      0.11495702947709     -0.59910610404282
  C   1.34749558361936      2.45507898165069      0.01360181598624
  C   -0.48421484707484      0.87581524896135      0.68295009552828
  C   0.89704881742717     -1.21461129517014     -0.68843687511906
  H   2.18283122461655      0.29123700013763     -1.11385534251148
  C   -0.34711199042760     -1.45080149807055      0.00172236478341
  O   1.56594556732568     -2.03543644083768     -1.31155609277927
  C   -0.99963979604913     -0.43994778626183      0.65101193048513
  H   -0.73655210184621     -2.46020606849042     -0.02580741172011
  H   -1.93378488858552     -0.65138017595163      1.16086210789407
  H   -0.99608691214490      1.65895834805222      1.22295741958301
  C   2.64403317562472      2.71477175185822     -0.50549950860439
  C   0.74275258164790      3.62262872835672      0.45908065805460
  C   2.99351747949090      4.04385082298002     -0.42743633057375
  H   3.32845860220220      1.97048758330007     -0.89219896147390
  S   1.74805075923501      4.97529189958555      0.26062959742674
  H   3.92108257872692      4.50453117055881     -0.73357890697076
  H   -0.24839239377754      3.74439385090054      0.87014392279956
