19
Coordinates from ORCA-job opt
  C   0.95603441734203      1.00827748948607     -0.02281061255253
  N   -0.09544983052343      0.77148941060171     -0.86136729712631
  C   1.63305949763249      2.30758709591242     -0.16347769643538
  C   1.30292019055484      0.05335075810290      0.89296544580802
  C   -0.88812768849291     -0.38293444113223     -0.89980221629361
  H   -0.35187388174324      1.48463345263932     -1.53691972747557
  C   -0.49103704155791     -1.36673912554626      0.08049424631950
  O   -1.80685708183573     -0.47743743038242     -1.70952433328006
  C   0.55523402373503     -1.15002002359325      0.93259520685552
  H   -1.06618043471819     -2.28346667212948      0.10450223562605
  H   0.82136508583389     -1.91553342449080      1.65395810258563
  H   2.13471184258621      0.23424264352041      1.55924147370383
  C   1.33417522979345      3.45277747679017      0.61417273753951
  C   2.62034332860730      2.55736171610008     -1.10166561631236
  C   2.10226742926325      4.54096397272321      0.26076533112779
  H   0.58913850782279      3.46870437191404      1.39943541702946
  S   3.17090677404004      4.16376819139433     -1.01105523113748
  H   2.08802836635346      5.53414074142391      0.68498373036527
  H   3.03984226530665      1.86383479666587     -1.81669119634726
