19
Coordinates from ORCA-job opt
  C   0.85109447664242      1.06967028621967     -0.05672216219535
  N   -0.16185947443935      0.79592733554844      0.81692536210280
  C   1.46972121723661      2.38941488754096      0.02332357234596
  C   1.25267952641269      0.08565897559915     -0.92355065316650
  C   -0.86356713716453     -0.40957434803492      0.93577897579240
  H   -0.51247930185176      1.53711416735334      1.41447467914618
  C   -0.40919695250107     -1.41896975999071      0.00876162868717
  O   -1.76809250439159     -0.51822388809690      1.75976091288256
  C   0.59806576718242     -1.16821297982825     -0.88077223685444
  H   -0.91573224705272     -2.37476851272238      0.04618928425874
  H   0.91138884678485     -1.95033295909491     -1.56439094244402
  H   2.07869982941218      0.26723999842161     -1.59626912805276
  C   2.11932147255018      3.03064942767982     -1.06217215728681
  C   1.51899224851916      3.15932563871374      1.17744304482980
  C   2.63924182872754      4.25631604630010     -0.71608516560866
  H   2.17194298184594      2.62301916555906     -2.06314286947816
  S   2.34272539741420      4.62393561362339      0.92068543681207
  H   3.16015766181803      4.96077333779379     -1.34776332381705
  H   1.16539736285480      2.90603756741502      2.16732374204606
