28
Coordinates from ORCA-job mp2_opt
  C   -1.67681344967067      2.60952865708799      0.51297694509410
  C   -0.64483837192410      1.70632653392520      0.69924669173150
  C   -0.78719531176479      0.36211075026206      0.30645898294926
  C   -2.04545503567772     -0.07559783839895     -0.14598196230776
  C   -3.07743474238160      0.85461922292785     -0.33933211147221
  C   -2.89405768171487      2.19072324094962     -0.03919440679521
  H   -1.54469135080221      3.63907564342740      0.82593911200588
  H   0.26913936278561      2.02572871469795      1.18335130558832
  C   -2.34907777915573     -1.51047906478835     -0.31354843548609
  H   -4.02530322665537      0.47153115128193     -0.70021783243684
  H   -3.69832270890260      2.90159415772150     -0.18819592175637
  C   -1.28612534098804     -2.37444191867753      0.14691098887429
  C   -0.06628398860023     -1.88587579695360      0.47473497539532
  H   -1.44495309392290     -3.44558089888830      0.15027823712930
  H   0.73526075850106     -2.57410316386769      0.69104481269172
  C   1.61612529594393     -0.23054716139559      0.12301258764865
  C   1.95300509372513      1.01190357391977     -0.42674153044901
  C   2.66386442834503     -1.11169962976612      0.43530604236334
  C   3.27453368733205      1.31795883314450     -0.74370683248764
  H   1.18245954265136      1.71604353931725     -0.70341466479881
  C   3.98074518554584     -0.79460275591388      0.12248215381160
  H   2.48167514229574     -2.04632792629690      0.94575561008457
  C   4.30166120450076      0.42322407769584     -0.46976204151858
  H   3.49063956927352      2.27625700100145     -1.20207170527055
  H   4.76101726692102     -1.50568923923185      0.36840207654515
  H   5.32911086293999      0.66748638816165     -0.71032527736232
  O   -3.41790324991195     -1.91826468210077     -0.76923488148088
  N   0.27011593131176     -0.54292840924243      0.53721208170927
