28
Coordinates from ORCA-job mp2_opt
  C   -1.69157614089693      2.60503257307080      0.51931753176701
  C   -0.65497833513233      1.71004465340565      0.71454372645530
  C   -0.78787171460140      0.36303054299031      0.32649732354723
  C   -2.03791132121845     -0.08450015949023     -0.13969837106287
  C   -3.07477499817500      0.83928636263720     -0.34119961082842
  C   -2.90349913423536      2.17591507580522     -0.03820319189633
  H   -1.56695284673791      3.63701908262007      0.82742281096962
  H   0.25789000389734      2.03974203454567      1.19478162100647
  C   -2.32327151495367     -1.51989111652406     -0.33045225419646
  H   -4.01562929032894      0.44985187501149     -0.71349636191083
  H   -3.71140682347287      2.88130701160872     -0.19371168801522
  C   -1.24498100226725     -2.37761496680928      0.10111855049760
  C   -0.03574722301356     -1.87846246385277      0.45691417065208
  H   -1.38156609057392     -3.45118235930233      0.06430311669883
  H   0.77924621983963     -2.55634654740578      0.65404348522446
  C   1.63082830303298     -0.16463372514214      0.27756133369920
  C   2.67495544250838     -1.06923433452832      0.51659931097503
  C   1.92641424954289      0.99727412445399     -0.44775066222511
  C   3.97974451164791     -0.76785982376695      0.14063938398068
  H   2.50808768312053     -1.98346208763236      1.06936870966596
  C   3.23464570351210      1.28938443171894     -0.82433515123925
  H   1.13714640231628      1.66618110098234     -0.75829272792222
  C   4.27435668592211      0.41379134392179     -0.53206199972776
  H   4.76560595798245     -1.47899299665085      0.36789490952455
  H   3.42630911880861      2.20068437710135     -1.37933517552358
  H   5.29096806714123      0.64198535818285     -0.82832044289564
  O   -3.39056902508722     -1.93271695765558     -0.78730600890298
  N   0.26840211142236     -0.53544740929575      0.56191866168262
