28
Coordinates from ORCA-job mp2_opt
  C   -1.37117381345243      2.68689861368806      0.28665254251647
  C   -0.38611253661184      1.71788868170172      0.22255463637431
  C   -0.74257617353122      0.36714604721715      0.05612307981922
  C   -2.10384727806987      0.00624617642264     -0.01538106882507
  C   -3.08142747753424      1.00961979972367      0.04838626316270
  C   -2.72541409701156      2.33693117787823      0.19125610126054
  H   -1.08488046295181      3.72453301011870      0.41650713672417
  H   0.65688687050007      1.99656900059405      0.31026575661671
  C   -2.53064525592521     -1.40515593558592     -0.12999933719255
  H   -4.11689745102053      0.69433273942933     -0.01245619639376
  H   -3.48820477426356      3.10542277847522      0.23881286274995
  C   -1.43766530033487     -2.34858685614328     -0.13989316517041
  C   -0.14216900157663     -1.93686068541558     -0.08729369287566
  H   -1.65911418731390     -3.40586940190676     -0.21082633462243
  H   0.68744028979930     -2.63414033293892     -0.12638010843038
  C   1.61696109299506     -0.30228715423871     -0.01707591000883
  C   2.42188528906674     -0.69321985718142      1.05107025120492
  C   2.15958899287966      0.37603550597906     -1.10836317720026
  C   3.78509585005280     -0.40640412456173      1.02227499083907
  H   1.97412353438870     -1.20815922547877      1.89423342572142
  C   3.51956644151948      0.67056243168364     -1.12288064724263
  H   1.51393952611158      0.66098447664847     -1.93203851458470
  C   4.33386068430139      0.27785516802835     -0.06040855249577
  H   4.41525243193412     -0.70958738594969      1.85023536408509
  H   3.94604407361604      1.19528547719092     -1.96998404879651
  H   5.39366131343851      0.50308427255766     -0.07804134040507
  O   -3.71993885462961     -1.72882587913180     -0.20414497673352
  N   0.22903227362380     -0.62570951880431     -0.00545134009702
