28
Coordinates from ORCA-job mp2_opt
  C   -1.41037717690300      2.67459770104259      0.35836093981128
  C   -0.41396274453015      1.71668072897739      0.30690236690674
  C   -0.74723306704922      0.36662120425533      0.09132488791770
  C   -2.10299615426347     -0.00544046308533     -0.02100856073536
  C   -3.09297303226066      0.98666079688827      0.03039097877406
  C   -2.75685490038612      2.31463214884040      0.20776225014485
  H   -1.13893482192124      3.71100370171343      0.52486944986087
  H   0.62057026801550      2.00505493791887      0.44431001702917
  C   -2.51662490752767     -1.41864757467609     -0.15833444320673
  H   -4.12247979544439      0.66061945274432     -0.06479358252229
  H   -3.52889914070056      3.07441854190079      0.24415744923508
  C   -1.41613790049819     -2.35272230116679     -0.15218106715031
  C   -0.12627226515418     -1.93068128622578     -0.06937015425263
  H   -1.62589279778771     -3.41076072827216     -0.24449081743421
  H   0.70791700411066     -2.62166262724056     -0.11475543070432
  C   1.62257275978333     -0.29338946741766     -0.00605966127540
  C   2.10878882274484      0.54676719346150     -1.00864141725821
  C   2.48651434763138     -0.83156349760104      0.94690602748697
  C   3.46744093076305      0.84333729992539     -1.05512521121048
  H   1.42447025543448      0.94755199497761     -1.74828429565945
  C   3.84750193461598     -0.54151619704988      0.88352011966531
  H   2.08650566246368     -1.46136651902136      1.73406947110994
  C   4.33962554185743      0.29936950122343     -0.11236483364159
  H   3.84666663757894      1.49078681413594     -1.83728555751620
  H   4.51947819680827     -0.96145590126169      1.62298091280318
  H   5.39761628360698      0.52945962341796     -0.15513103540228
  O   -3.70121653525978     -1.75054370115184     -0.26295878697199
  N   0.23656859427186     -0.61786837725303      0.04615598419631
