28
Coordinates from ORCA-job mp2_opt
  C   -1.54509243716671      2.63513699283252      0.47458978873352
  C   -0.52347080325669      1.70528017482450      0.53656268490121
  C   -0.76545285404541      0.35702150114786      0.20954836819439
  C   -2.08476694301564     -0.04716940047426     -0.07463778564829
  C   -3.10495996823512      0.91393240723389     -0.13851730140818
  C   -2.84216331142802      2.24565482731047      0.11350775194071
  H   -1.33685198440363      3.66790075079830      0.73047282444454
  H   0.46287446665424      2.01248003348072      0.85948501001642
  C   -2.44781764186521     -1.46933067963981     -0.24092556892495
  H   -4.10207918153871      0.55700537294896     -0.36984585046806
  H   -3.63695168707705      2.98065488607227      0.06236508013379
  C   -1.33926492509105     -2.37416161948189     -0.05340797259762
  C   -0.07913670512680     -1.91842688476013      0.15902765931785
  H   -1.50864005793630     -3.43929302480176     -0.14912803980096
  H   0.75810451710618     -2.60330931577267      0.18210381929842
  C   1.62971951215118     -0.26820811342732      0.05163384734538
  C   1.99093960234586      0.84968810580281     -0.70408605972273
  C   2.63032865121675     -1.02596827539997      0.67104418975780
  C   3.33592539573615      1.15708556359022     -0.89375890807707
  H   1.23070268474487      1.44062607375123     -1.19834673615469
  C   3.97097136542945     -0.71450728389904      0.47161444068847
  H   2.36227121763837     -1.84317158608872      1.33001393362335
  C   4.33285953403080      0.38171072913230     -0.30804020620484
  H   3.59858795746934      2.01363742054189     -1.50391656515056
  H   4.73208695413371     -1.31611425033734      0.95504260503490
  H   5.37734264392715      0.62943633948886     -0.45433374265295
  O   -3.59630851362563     -1.83121013676172     -0.50768537982482
  N   0.26035251122795     -0.59249860811216      0.31617111320497
