28
Coordinates from ORCA-job mp2_opt
  C   -1.48687435838440      2.65209810104866      0.43083630555776
  C   -0.47272902985297      1.71197010204849      0.43446709944419
  C   -0.75702109459693      0.36183735537901      0.15417755639617
  C   -2.09664606905814     -0.03039348081739     -0.04490649875661
  C   -3.10692513741765      0.94288701507246     -0.04974255997438
  C   -2.81098980498755      2.27358365973694      0.16957285563410
  H   -1.24863786389334      3.68708742617804      0.64892140550627
  H   0.53912059163115      2.01426789668895      0.67153797772567
  C   -2.48281735957006     -1.44894746890999     -0.19829626742464
  H   -4.12118067520835      0.59755722085499     -0.21468193860905
  H   -3.59826058319922      3.01840419395903      0.16319105547493
  C   -1.37192272193725     -2.36595300587874     -0.11307987338220
  C   -0.09657133255257     -1.92388273191131      0.03650115122285
  H   -1.55790273070674     -3.42735822570760     -0.21787375610382
  H   0.74306310048215     -2.60778711455702      0.01356781710106
  C   1.63011774223395     -0.27837198277786      0.02361520658283
  C   2.03523284516462      0.74551977780123     -0.83510110723242
  C   2.57957800124590     -0.96612743153462      0.78340825171733
  C   3.38841685423553      1.04817815186643     -0.95746058467336
  H   1.30068804489944      1.27037081460921     -1.43401929521975
  C   3.93117400004395     -0.66421739692511      0.64563981704322
  H   2.25598780662423     -1.71912950979992      1.49302904012582
  C   4.34098390272910      0.34724710695484     -0.22030784039897
  H   3.69617956894433      1.83380897275267     -1.63783593571562
  H   4.66086044096944     -1.20544394401151      1.23687705077432
  H   5.39273158690485      0.58815980704561     -0.31891136065048
  O   -3.65285416719602     -1.79807925181551     -0.37715530008783
  N   0.25091044245254     -0.60506605735000      0.18747372792262
