28
Coordinates from ORCA-job mp2_opt
  C   -1.28163713559380      2.70610494100807      0.00402889721861
  C   -0.32577894092370      1.70594290291653      0.00176175022607
  C   -0.72753850439498      0.35781487652997      0.00015456297215
  C   -2.09874224063319      0.03119692149465      0.00062941619084
  C   -3.04560696059326      1.06547803570282      0.00293999939517
  C   -2.64745108910088      2.38884613840528      0.00470961580591
  H   -0.96392279059829      3.74268204361992      0.00523651324563
  H   0.72853568049675      1.95667047132525      0.00100981049376
  C   -2.56140538874195     -1.37343426811814     -0.00144081283845
  H   -4.09112507375624      0.77855238042254      0.00326113830077
  H   -3.38675689806267      3.18144564317624      0.00649279574910
  C   -1.49238251974482     -2.34454645726034     -0.00435315313366
  C   -0.18538687254622     -1.96492014469272     -0.00453936500640
  H   -1.74370532047783     -3.39747629062313     -0.00622102457119
  H   0.62747185606693     -2.68300916642993     -0.00634373555583
  C   1.60825628882687     -0.35466271246641     -0.00136145051462
  C   2.27808064795653     -0.20405190775887     -1.21349603514315
  C   2.27490455258005     -0.19737736079635      1.21171298455285
  C   3.63557424465954      0.10808447256246     -1.20842477655083
  H   1.73053134736765     -0.32693549463754     -2.14167457640163
  C   3.63233601847877      0.11490483094439      1.20850508606161
  H   1.72493062276776     -0.31542477666042      2.13909245152955
  C   4.31140815748204      0.26947876553670      0.00048230179183
  H   4.16401059304726      0.22671663959509     -2.14725727293370
  H   4.15829768138396      0.23871206309110      2.14805865118176
  H   5.36708892024065      0.51411680654235      0.00120808036129
  O   -3.76002835328705     -1.67082608473515     -0.00133990633257
  N   0.21468847710014     -0.66167626869435     -0.00231094609488
