28
Coordinates from ORCA-job mp2_opt
  C   -1.78691818032461      2.61039029939436      0.42281838611888
  C   -0.72784347472595      1.75237065489999      0.67492716032324
  C   -0.80013276630892      0.39921435069410      0.29989162537470
  C   -2.02318609755944     -0.09536050710964     -0.19340450533900
  C   -3.07980649357276      0.78767593271757     -0.45320329422124
  C   -2.95724534470457      2.13787001664333     -0.18134500815218
  H   -1.71137158725512      3.64803425385382      0.72769017747098
  H   0.13176497807865      2.11328840880570      1.22247272418225
  C   -2.27644838003432     -1.54815531894718     -0.29941977385635
  H   -3.99745710213618      0.36065970160543     -0.84215931697258
  H   -3.77881957820575      2.81506671111046     -0.38272632703552
  C   -1.25691297294130     -2.34840016637497      0.34717701685976
  C   -0.06031281976371     -1.81529094264903      0.68910156106491
  H   -1.43949332910275     -3.40294092361200      0.51145189475807
  H   0.70781154539116     -2.44373553475476      1.11429961361889
  C   1.62114342841439     -0.17669629584891      0.16190019441192
  C   2.02026260027747      1.11635826548702     -0.20657233593082
  C   2.60759267022360     -1.17783766706930      0.17038992934005
  C   3.34607512597140      1.39603327218919     -0.52544457993241
  H   1.29834436224304      1.90802470008569     -0.32088650807351
  C   3.93275817109370     -0.88256538495180     -0.13335620306508
  H   2.37049158445549     -2.20866733516850      0.38254401052741
  C   4.32208400929954      0.40867829594141     -0.46971011193969
  H   3.60560396025445      2.40722513804992     -0.81771644984493
  H   4.66022900637813     -1.68612763562746     -0.11392621333934
  H   5.35470352807976      0.63284483827135     -0.70726281029500
  O   -3.29142286745349     -2.01413996989789     -0.81604493197174
  N   0.27320002392808     -0.48077715773790      0.55065507591833
