28
Coordinates from ORCA-job mp2_opt
  C   -1.32500530054066      2.69864734240672     -0.21322287344471
  C   -0.35489195456619      1.71377775623383     -0.16027252735475
  C   -0.73537615280425      0.36483342655349     -0.04014908375655
  C   -2.10194550155382      0.02180135723798      0.01126815457281
  C   -3.06359867871724      1.04094200330129     -0.04117334583309
  C   -2.68546013393408      2.36572190396468     -0.14839341412409
  H   -1.02258495784111      3.73548562889092     -0.30803615503258
  H   0.69442734975327      1.97745244361645     -0.21853922946751
  C   -2.54721431410098     -1.38566266380528      0.10170646567261
  H   -4.10453467016906      0.74097994164437      0.00202907590285
  H   -3.43621866933132      3.14644884026841     -0.18828900018395
  C   -1.46650451706112     -2.34354200947044      0.11148703208056
  C   -0.16496933609138     -1.94839454930218      0.07204411178407
  H   -1.70277266383053     -3.39860465303607      0.16518854904991
  H   0.65629340354901     -2.65622015382125      0.10025748220523
  C   1.61217665159997     -0.32698294700831      0.01563865639292
  C   2.19732295724195      0.17612622005182      1.17667708850751
  C   2.36959300829496     -0.53618235930077     -1.13451294211108
  C   3.55690841215968      0.47456610133204      1.18195281466496
  H   1.58361703153644      0.32661828855406      2.05833794048573
  C   3.73188601944373     -0.24357268967104     -1.11822052461550
  H   1.88617424485066     -0.91852714243538     -2.02709922780354
  C   4.32457377211179      0.26423039551951      0.03644865825455
  H   4.01851149537708      0.86404877723051      2.08199263454669
  H   4.32740726460868     -0.40552207305768     -2.00912467094056
  H   5.38347259018972      0.49438443896788      0.04487826214444
  O   -3.74125664283680     -1.69515050639897      0.15917048045556
  N   0.22098629266158     -0.64143211846657      0.01088358794749
