28
Coordinates from ORCA-job mp2_opt
  C   -1.39933272360814      2.68078264638522     -0.31962359155633
  C   -0.40557540225534      1.72053989333815     -0.25895358233422
  C   -0.74722665839241      0.36868434840544     -0.07096508435519
  C   -2.10485187499288     -0.00240158892404      0.01764234765268
  C   -3.09171325685417      0.99213993653466     -0.04292583408517
  C   -2.74920967535112      2.32104827517157     -0.20174915638378
  H   -1.12319633541893      3.71904379214110     -0.46555436914813
  H   0.63307161396906      2.00758806037577     -0.36683111868515
  C   -2.52023571521379     -1.41615916297706      0.14400794699601
  H   -4.12354743333508      0.66818786461977      0.03221052410247
  H   -3.51901133831835      3.08269934334644     -0.24609730975706
  C   -1.42002241417698     -2.35094225587142      0.15016786880245
  C   -0.12846028582270     -1.92967650840699      0.08434527599143
  H   -1.63224303000839     -3.40931560982834      0.23230896851830
  H   0.70603413741449     -2.62068555689983      0.12737526995950
  C   1.61944202580212     -0.28642105858496      0.00786785850927
  C   2.45109935028016     -0.75412401891160     -1.00805070731283
  C   2.13911776042001      0.46115336970385      1.06506366869908
  C   3.81449241664792     -0.47057305790443     -0.96390292273043
  H   2.02370594190751     -1.32344851567298     -1.82640728677298
  C   3.49948096145081      0.75198321724716      1.09372497347100
  H   1.47640463364814      0.80111043864087      1.85347852673597
  C   4.33928978476421      0.28513932441624      0.08240439522073
  H   4.46346079308764     -0.83273998771562     -1.75273761535816
  H   3.90653715168786      1.33056681469749      1.91489475629819
  H   5.39925929753948      0.50825998373272      0.11162512281663
  O   -3.70632849529137     -1.74826553070732      0.23040829946359
  N   0.23359277042023     -0.61640345635189     -0.01344722475789
