28
Coordinates from ORCA-job mp2_opt
  C   -1.52468267098970      2.64057240001404      0.46064030142193
  C   -0.50525277760530      1.70719568793066      0.50220383482936
  C   -0.76231910077040      0.35818620510270      0.19052184821582
  C   -2.08948010429630     -0.04179214044319     -0.06375468164931
  C   -3.10671503565393      0.92351810084073     -0.10667615252020
  C   -2.83206953385595      2.25492446784551      0.13410904894214
  H   -1.30553031362861      3.67416619913283      0.70381799029746
  H   0.49059689331877      2.01300405778852      0.79578075222723
  C   -2.46097662331878     -1.46256752680027     -0.22611986317679
  H   -4.11031700608516      0.57046607439522     -0.31475203700222
  H   -3.62453035860534      2.99337560761040      0.09866455019054
  C   -1.35074803855477     -2.37204002093079     -0.07550376540632
  C   -0.08483304260661     -1.92118798575873      0.11478803727240
  H   -1.52580257252945     -3.43580848119071     -0.17571661703751
  H   0.75381659782503     -2.60545123533402      0.11978413847342
  C   1.63051109007168     -0.27236696373273      0.04150720697346
  C   2.00418551780043      0.81742567682307     -0.74808435979976
  C   2.61573162970266     -1.00901965969877      0.70722924869659
  C   3.35215439536725      1.12439986084087     -0.91399221467418
  H   1.25118813459461      1.38727697370638     -1.27771554135115
  C   3.96020919618921     -0.69962164361533      0.52914479048868
  H   2.32978703505193     -1.80695514428621      1.38251045066389
  C   4.33625200574381      0.37208818592026     -0.27751591279456
  H   3.62847641171862      1.95976759728016     -1.54704185078618
  H   4.71225223872556     -1.28255388474961      1.04834072104431
  H   5.38325514215522      0.61872200883299     -0.40694243331965
  O   -3.61801273263015     -1.81947990842211     -0.46211298084657
  N   0.25733462286569     -0.59798050910187      0.27153749062718
