28
Coordinates from ORCA-job mp2_opt
  C   -1.83181705574770      2.61766812902226      0.36127605018515
  C   -0.75963478079322      1.78356161240804      0.64092960527722
  C   -0.80597996501243      0.42223222916970      0.29464114186560
  C   -2.01721934634175     -0.10227706833418     -0.19973192749877
  C   -3.08656743552240      0.75608448595058     -0.48590890184914
  C   -2.98862455274111      2.11396752053606     -0.24212801640876
  H   -1.77645079458973      3.66214082701944      0.64662933332841
  H   0.07949587255230      2.17246025918568      1.19914342207184
  C   -2.24452247714691     -1.56185323733007     -0.27989359854163
  H   -3.99354140924214      0.30559383763984     -0.87355982606676
  H   -3.81955775110377      2.77318002716818     -0.46373345563231
  C   -1.23436908241071     -2.33086088105874      0.41889598904416
  C   -0.04718972934029     -1.77376752006445      0.75501060836482
  H   -1.41642983103911     -3.37718320026330      0.62940045743139
  H   0.72462290694533     -2.36847718367220      1.22301777503030
  C   1.62545075793493     -0.14790926213619      0.18098622730507
  C   2.07213756963451      1.15316845980896     -0.09305347232746
  C   2.56049983777151     -1.19060898639275      0.05664366850399
  C   3.40302183275910      1.39974019577530     -0.41834090744976
  H   1.39081266063877      1.98615378689872     -0.11320655149605
  C   3.89244565864508     -0.92934380100180     -0.24858702215154
  H   2.26571623334430     -2.22446535680703      0.15197302522275
  C   4.33371438522371      0.36916490792279     -0.47420995846154
  H   3.70305129284829      2.42022802903202     -0.62778798845183
  H   4.57963238299266     -1.76380869480443     -0.33065104626510
  H   5.37041021164609      0.56900147970814     -0.71581285904125
  O   -3.23626054869943     -2.05535042420591     -0.81506188559500
  N   0.27497315679410     -0.44520217117468      0.55374111360619
