28
Coordinates from ORCA-job mp2_opt
  C   -1.65218241413392      2.61381499945717      0.50304085990347
  C   -0.61331890217895      1.71246694639693      0.64688096374717
  C   -0.78406414284180      0.36130249724362      0.28849193823167
  C   -2.06159458352815     -0.07934068951653     -0.10597365662390
  C   -3.10055695342932      0.85224731081591     -0.25375019818743
  C   -2.90035319336925      2.18933281563357      0.02717957149680
  H   -1.49868913348899      3.64936951524919      0.78495728605537
  H   0.33238358508313      2.04238905449561      1.05839287525546
  C   -2.36446487409379     -1.51158321907081     -0.29658901786206
  H   -4.06381733932555      0.46855178194054     -0.57031691086639
  H   -3.70963296258298      2.90088640438755     -0.08789797713554
  C   -1.25224771485160     -2.37922057201723      0.00761736187236
  C   -0.02584219397253     -1.88656736503106      0.31229578988050
  H   -1.38271204826339     -3.45027304072453     -0.08324051827998
  H   0.81553700424776     -2.55603665213341      0.41101477196744
  C   1.63101918939711     -0.16520156724402      0.23616709207766
  C   2.66872681882099     -1.01977347718371      0.62706354392448
  C   1.94033156393928      0.93493078641658     -0.57236089491411
  C   3.98786187661141     -0.72823041865090      0.29621797122125
  H   2.46574743112376     -1.87768758085413      1.25571553184028
  C   3.26338593066396      1.22029670313842     -0.89777664828933
  H   1.15118331486267      1.55357982089653     -0.97745187341752
  C   4.29715147873948      0.39470781489206     -0.46587924257797
  H   4.77398222830439     -1.39304723064916      0.63495984460874
  H   3.47601720809257      2.08137557073888     -1.52099233864394
  H   5.32531897567117      0.61828311452727     -0.72352858497526
  O   -3.46846112945728     -1.91281045520237     -0.67031319531238
  N   0.26783997995983     -0.54921386795198      0.47347765500315
