28
Coordinates from ORCA-job mp2_opt
  C   -1.48537741190495      2.66132061071425     -0.38892917583825
  C   -0.46738341630560      1.72535845996969     -0.36725481038715
  C   -0.76125057401796      0.37014480486572     -0.12685152213799
  C   -2.10434954457586     -0.03015204432625      0.02943026850889
  C   -3.11740831478866      0.93966588449143      0.00774595634286
  C   -2.81736388162681      2.27364950802290     -0.18679690861694
  H   -1.24294748913877      3.70159133828026     -0.57498788729344
  H   0.55397099607981      2.03475162627712     -0.54954245198077
  C   -2.48370913459821     -1.45136700268744      0.17859574791975
  H   -4.13561269949172      0.59094748116526      0.13759470055745
  H   -3.60679276832834      3.01612159639017     -0.20019696789517
  C   -1.36319980196800     -2.36052039292913      0.14643404524951
  C   -0.08605410682889     -1.91134089396971      0.02557499121233
  H   -1.54589443512615     -3.42204836041765      0.25525461453887
  H   0.76194815778055     -2.58497832930974      0.06368102768826
  C   1.62557866897514     -0.23813242713293     -0.04598405574888
  C   2.53530970739610     -0.87341337814470     -0.89130698867015
  C   2.07597843730670      0.65525340496020      0.92831141816055
  C   3.89518210573711     -0.59542122823949     -0.77651753931058
  H   2.17199502494695     -1.55934145910364     -1.64856415512145
  C   3.43478251520887      0.93767378777436      1.02625662120211
  H   1.36448070138348      1.11045114685959      1.60801859232110
  C   4.34805359493909      0.31389975339408      0.17659451286097
  H   4.59834446817702     -1.08532711426096     -1.44012828103772
  H   3.78175875912837      1.63163420415415      1.78309253119675
  H   5.40595849286673      0.53284621456261      0.26003985812697
  O   -3.65740201810214     -1.80889466444251      0.31469286130938
  N   0.24727596687610     -0.59186152691767     -0.11677900315726
