28
Coordinates from ORCA-job mp2_opt
  C   -1.42899363013834      2.66855646763281      0.38148674197624
  C   -0.42770185021555      1.71530305863690      0.34145555401108
  C   -0.74949743355925      0.36532622197627      0.10763309048941
  C   -2.10195516539446     -0.01181984919429     -0.02577955584310
  C   -3.09736910789354      0.97548482529764      0.01395729297986
  C   -2.77087679165899      2.30399835468354      0.20367572038036
  H   -1.16521424708465      3.70454168673799      0.56231479540308
  H   0.60206545918705      2.00748516365419      0.50340275240908
  C   -2.50894726313861     -1.42621405026856     -0.16953250984519
  H   -4.12359078258580      0.64463811190234     -0.09843709784569
  H   -3.54698796927954      3.05999909265312      0.23104995957090
  C   -1.40517301855448     -2.35598737040832     -0.14893282137620
  C   -0.11847971338946     -1.92906814351735     -0.04936557380122
  H   -1.60906882819576     -3.41458222168449     -0.24793046984576
  H   0.71764903099595     -2.61755740071745     -0.09254335393447
  C   1.62486849846933     -0.28952917154615      0.00165757195925
  C   2.08763256239891      0.60469475765421     -0.96497340842127
  C   2.51299791497754     -0.87342061876978      0.90498316517480
  C   3.44521366780476      0.90314974479363     -1.02980738282788
  H   1.38814684686702      1.04214541638835     -1.66849156224918
  C   3.87207504931984     -0.58030779174024      0.82294616785859
  H   2.13346936456432     -1.54019766708150      1.67141914176380
  C   4.34067041911740      0.31183891456250     -0.13907649951527
  H   3.80449808900852      1.59145901670682     -1.78606072237599
  H   4.56089529422916     -1.03684005803753      1.52429901647161
  H   5.39734126174261      0.54489671740864     -0.19566963992698
  O   -3.69068816340788     -1.76223878824860     -0.29064010148003
  N   0.24019450581391     -0.61522341947469      0.07909072884015
