28
Coordinates from ORCA-job mp2_opt
  C   -1.28684552905736      2.70517825589808     -0.08930871778969
  C   -0.32941599501449      1.70660493807200     -0.07312648934901
  C   -0.72876623553469      0.35876300668483     -0.02283561067418
  C   -2.09940028422672      0.03041479710795      0.00715784872885
  C   -3.04777498379389      1.06306983124815     -0.00904752215808
  C   -2.65183224684075      2.38634712113656     -0.05538442058386
  H   -0.97122149405570      3.74164630231632     -0.12915497357824
  H   0.72425181659037      1.95841443764983     -0.10205708087826
  C   -2.55980904018671     -1.37441694388909      0.04977102851130
  H   -4.09293420045131      0.77583971546300      0.01528050614227
  H   -3.39250903811455      3.17760465622901     -0.06761815652829
  C   -1.48944776036259     -2.34425597998922      0.04726300369453
  C   -0.18317191469085     -1.96285817052925      0.02266439051767
  H   -1.73763446246944     -3.39766079961284      0.07144099713928
  H   0.63070834127800     -2.67979590764727      0.02983076835883
  C   1.60854305774635     -0.35086155184594      0.00032943288896
  C   2.24393155678785     -0.08930230333283      1.21261190574028
  C   2.31080634704657     -0.30721295672418     -1.20168704301983
  C   3.60134542851939      0.22145550005554      1.21846702297335
  H   1.66940999209981     -0.12757240072242      2.13187768998728
  C   3.66929590121874      0.00171487060546     -1.18717441768486
  H   1.78767533038588     -0.50842120278890     -2.13027375245188
  C   4.31327233670657      0.26825581482699      0.02027723483717
  H   4.10276050230174      0.42545954285578      2.15750546748416
  H   4.22308622722299      0.03694099903910     -2.11820999805673
  H   5.36947088520543      0.51061669873089      0.02781032814859
  O   -3.75755767535485     -1.67268815062120      0.08364387259646
  N   0.21515713704423     -0.65925612021631     -0.00707731499607
