28
Coordinates from ORCA-job mp2_opt
  C   -1.78021130882342      2.60701795777032      0.43965693637732
  C   -0.72475992404038      1.74610302119916      0.69505692407694
  C   -0.79689852821300      0.39464091091002      0.31289979573126
  C   -2.01636898496539     -0.09564205759616     -0.19323684064896
  C   -3.06908588299948      0.79128302044811     -0.45724512687350
  C   -2.94686854944378      2.13937869710230     -0.17609797708318
  H   -1.70495230235181      3.64307167711534      0.75000085640102
  H   0.13390849009158      2.10334437829076      1.24717166555272
  C   -2.27015225692107     -1.54700906354805     -0.31282611800079
  H   -3.98367536357836      0.36788870529754     -0.85721048883213
  H   -3.76562178510667      2.81910259313167     -0.38050821805119
  C   -1.25252909931976     -2.35342457017739      0.32770096171393
  C   -0.05963301251259     -1.82267663281055      0.68765004450495
  H   -1.43268180078795     -3.41104254814954      0.47382177252523
  H   0.70557538976097     -2.45649296696527      1.10949382235421
  C   1.62989713568192     -0.16642309401815      0.23381005225382
  C   2.61523598121852     -1.16820806658934      0.20833105964878
  C   2.00249332497118      1.10878658667635     -0.21693548822297
  C   3.93285741184408     -0.87061922736098     -0.12487666228581
  H   2.39026520108584     -2.19570810273340      0.44806433524144
  C   3.32026755836284      1.39204329936122     -0.56473805440732
  H   1.26921109466004      1.88749975230483     -0.34808575250183
  C   4.30541954326093      0.41421611943091     -0.50230470708209
  H   4.66379368604441     -1.67117716135852     -0.11270326242668
  H   3.56236942962619      2.39305964465500     -0.90333692728253
  H   5.33125651769271      0.63975883462623     -0.76648411161152
  O   -3.28416968708164     -2.00748842972370     -0.83684477683264
  N   0.27155172184409     -0.48726727728871      0.56823828576154
