28
Coordinates from ORCA-job mp2_opt
  C   -1.28687682057475      2.70508160591366      0.09005985350565
  C   -0.32944185284921      1.70651300471895      0.07381262126500
  C   -0.72877739999350      0.35868804118374      0.02312023146765
  C   -2.09940612036347      0.03032116262300     -0.00721964746314
  C   -3.04778957323704      1.06296499709166      0.00906526014760
  C   -2.65185380742354      2.38623290685200      0.05579891355705
  H   -0.97128513053441      3.74155152063355      0.13021218851254
  H   0.72422216593574      1.95832496324625      0.10299922509585
  C   -2.55975700537016     -1.37451013411470     -0.05034081665334
  H   -4.09296184949153      0.77579538889474     -0.01554889847350
  H   -3.39254324449515      3.17748435119320      0.06809605902320
  C   -1.48938977669212     -2.34433744828304     -0.04782120255052
  C   -0.18312191161681     -1.96292165090693     -0.02289143544429
  H   -1.73748589389134     -3.39775764680910     -0.07233603614992
  H   0.63077645800183     -2.67984206912207     -0.03011637861873
  C   1.60855439056776     -0.35085740529033     -0.00012326718198
  C   2.24384684834913     -0.08923730907915     -1.21244769784980
  C   2.31087032337920     -0.30713622105260      1.20186077082734
  C   3.60123102909140      0.22164617341907     -1.21837843032675
  H   1.66925902207202     -0.12754721960688     -2.13167302907139
  C   3.66933491822895      0.00192739114030      1.18726579574060
  H   1.78780083471446     -0.50839539918926      2.13047303637130
  C   4.31321348549951      0.26851670532295     -0.02022503123033
  H   4.10259176428437      0.42569589575683     -2.15744025106035
  H   4.22317849958860      0.03721142425231      2.11827180916524
  H   5.36939071572414      0.51099091712728     -0.02781197987710
  O   -3.75749063884690     -1.67278694788644     -0.08457181078770
  N   0.21517156994282     -0.65931899802900      0.00731614805984
