28
Coordinates from ORCA-job mp2_opt
  C   -1.44809351712790      2.66301507979902     -0.40081445422884
  C   -0.44212999275098      1.71434860216805     -0.37367746650151
  C   -0.75191728163175      0.36433365545262     -0.12339011630639
  C   -2.10058566121191     -0.01795056675752      0.03136972845616
  C   -3.10127206358588      0.96458857749795      0.00498283748255
  C   -2.78476049329774      2.29374118758244     -0.19578542063512
  H   -1.19245934712206      3.69862563891227     -0.59497386061415
  H   0.58231222572981      2.01013480877145     -0.56026565924130
  C   -2.50071815504669     -1.43366583221812      0.17966671248948
  H   -4.12386455478600      0.62886649876048      0.13459363775805
  H   -3.56484092534557      3.04592832661076     -0.21318433090520
  C   -1.39400020380336     -2.35914186183139      0.14087166737016
  C   -0.11083891787039     -1.92721031085750      0.02425283629055
  H   -1.59187941313159     -3.41847983991396      0.24424691724168
  H   0.72694229006785     -2.61362080797706      0.06271922935154
  C   1.62694066588352     -0.28562795974222     -0.00946439910699
  C   2.06833389127414      0.65581827110153      0.92202564849800
  C   2.53719601961775     -0.90809969276375     -0.86473539141407
  C   3.42475176408392      0.95534243005105      1.00626916127862
  H   1.35546813557057      1.12521913976897      1.59026018198509
  C   3.89411120697479     -0.61241494292867     -0.76355237418485
  H   2.17692785037209     -1.60616000076700     -1.61223301124640
  C   4.34126951917789      0.32310089133813      0.16696661589549
  H   3.76566136264058      1.67903060331373      1.73758813257088
  H   4.59808131400641     -1.10014319321006     -1.42793635198590
  H   5.39652309639808      0.55851590704057      0.23803551829210
  O   -3.67912436722833     -1.77398472577112      0.31859187240573
  N   0.24377955214275     -0.61201988343063     -0.11457286099535
