28
Coordinates from ORCA-job mp2_opt
  C   -1.30429838232498      2.70334937466015     -0.15109663120434
  C   -0.34113000478693      1.71091035065116     -0.11440550719098
  C   -0.73205011624249      0.36230395448377     -0.02999749779362
  C   -2.10088545621036      0.02718763496398      0.00849393699541
  C   -3.05529366341342      1.05379600171006     -0.02771211081955
  C   -2.66733496433048      2.37797701644673     -0.10393576146973
  H   -0.99455620148685      3.74019269800509     -0.21805403819224
  H   0.71069644750917      1.96811654311316     -0.15616556760049
  C   -2.55438016119380     -1.37899309095951      0.07418074724464
  H   -4.09857400941863      0.76060453144101      0.00437417944933
  H   -3.41256718622441      3.16453426466414     -0.13143605339343
  C   -1.47918736377482     -2.34330822929137      0.07866219887871
  C   -0.17500405639935     -1.95552727911182      0.04914505568479
  H   -1.72216720280570     -3.39753820643538      0.11621925837809
  H   0.64229443715681     -2.66832778088370      0.06724223722242
  C   1.61005177682990     -0.33886586779187      0.01052191127857
  C   2.22076430758217      0.04904804213561      1.20183620965949
  C   2.33982312169774     -0.42944673766982     -1.17229837349023
  C   3.57942085392635      0.35298439918326      1.20487683403813
  H   1.62677226617941      0.11026772956174      2.10739485170391
  C   3.70056334501894     -0.12979512715874     -1.15964686294054
  H   1.83623574466814     -0.72591919078260     -2.08608785218333
  C   4.31911888018650      0.26406844749863      0.02582322402952
  H   4.06135997979855      0.65381789011062      2.12794087795338
  H   4.27523764862652     -0.19933035887420     -2.07593437827123
  H   5.37684618038519      0.49966325351480      0.03167691826677
  O   -3.75049634637778     -1.68258717842549      0.11831945003086
  N   0.21760712542465     -0.65024508475941      0.00649474373568
