28
Coordinates from ORCA-job mp2_opt
  C   -1.48683128182074      2.65216330211762     -0.43068732899576
  C   -0.47270583125075      1.71201688136586     -0.43440770611697
  C   -0.75701691356942      0.36187072423003     -0.15420622915259
  C   -2.09664113211637     -0.03034839786439      0.04489669767915
  C   -3.10690118476732      0.94295214443196      0.04983095072976
  C   -2.81094594770837      2.27365716844179     -0.16940434375182
  H   -1.24858714723737      3.68716498318961     -0.64870590941965
  H   0.53914584902296      2.01429888755415     -0.67149079891511
  C   -2.48283557475238     -1.44890306861868      0.19821868955221
  H   -4.12115789694767      0.59763107038526      0.21478227468246
  H   -3.59820066671618      3.01849389558034     -0.16295732234814
  C   -1.37196497959803     -2.36592859055957      0.11287529120303
  C   -0.09661006589237     -1.92387170480594     -0.03671727386631
  H   -1.55796264657320     -3.42733767048237      0.21759972555946
  H   0.74301230090074     -2.60779370737591     -0.01386717111590
  C   1.63010864858774     -0.27839252094299     -0.02373669195465
  C   2.03525816281081      0.74540910360820      0.83507101603944
  C   2.57954170141838     -0.96608772828199     -0.78361622805230
  C   3.38845089245063      1.04803015223386      0.95743526555721
  H   1.30072887183854      1.27021684579444      1.43404657809503
  C   3.93114569574881     -0.66421688068714     -0.64584565355921
  H   2.25591736506005     -1.71901511828602     -1.49330081059316
  C   4.34099161566890      0.34715436383687      0.22019589445502
  H   3.69624273368258      1.83358803115194      1.63788099528051
  H   4.66081110955914     -1.20539613935130     -1.23715172589209
  H   5.39274536903237      0.58803655179568      0.31880655386679
  O   -3.65286991938034     -1.79801823362903      0.37712087262333
  N   0.25089387254888     -0.60505134483227     -0.18760161158974
