28
Coordinates from ORCA-job mp2_opt
  C   -1.34517572450242      2.69318302864135      0.24971281466150
  C   -0.36842796898939      1.71536586822873      0.19041764299168
  C   -0.73842207988039      0.36569561071463      0.04721364239623
  C   -2.10270637784643      0.01478931077361     -0.01359851534326
  C   -3.07140195178881      1.02694375928573      0.04530027234876
  C   -2.70295888425619      2.35279024262348      0.17038685307500
  H   -1.04983987568919      3.73032282999149      0.36199967080460
  H   0.67818151738750      1.98563701262401      0.26267404401495
  C   -2.53993982115153     -1.39438410779462     -0.11614035198373
  H   -4.10996202329191      0.72020658309483     -0.00621362892107
  H   -3.45903345059613      3.12810275096827      0.21472797011935
  C   -1.45386541799373     -2.34600412444738     -0.12562978214583
  C   -0.15495795109911     -1.94353513472724     -0.08032957107018
  H   -1.68369543623475     -3.40207154980627     -0.18714728674688
  H   0.67002576683466     -2.64671470129463     -0.11353095958220
  C   1.61435991079730     -0.31672907255402     -0.01768244024184
  C   2.39442420149089     -0.61550954766933      1.09718751982396
  C   2.17862016907319      0.27512507271357     -1.14711088658525
  C   3.75725409581740     -0.32588546122001      1.07595106187759
  H   1.92806840300308     -1.06392105107998      1.96784696203565
  C   3.53831829124885      0.57210609058541     -1.15567997366398
  H   1.54924461756684      0.49293969111467     -2.00328002426194
  C   4.32871508793816      0.27004134205501     -0.04663713349341
  H   4.36952656625415     -0.55792934938571      1.93955734737443
  H   3.98276929490503      1.03002722866075     -2.03182167387510
  H   5.38812687681178      0.49755076041069     -0.05865974190740
  O   -3.73191764850216     -1.70998925066981     -0.18201578307153
  N   0.22457181269332     -0.63467583183721     -0.01022704863013
