28
Coordinates from ORCA-job mp2_opt
  C   -1.67227124609274      2.60882268813473      0.51607047909299
  C   -0.63441260524258      1.71058038079134      0.68584773593371
  C   -0.78608055558936      0.36169045948284      0.31093774677917
  C   -2.04920429914332     -0.08208368745510     -0.12299049326707
  C   -3.08752371360665      0.84569403170536     -0.29763060878195
  C   -2.90241959527752      2.18206334112472     -0.00252083103129
  H   -1.53333252778442      3.64243793368441      0.81238971689065
  H   0.29549906284439      2.04023518587851      1.13235351160908
  C   -2.34087765096429     -1.51541952208375     -0.31994479030357
  H   -4.03927732419935      0.45960586607183     -0.64477471890990
  H   -3.71141326403920      2.89048229609715     -0.13746599130518
  C   -1.24555111067437     -2.37870460053525      0.05149266909135
  C   -0.02839314017399     -1.88285146527564      0.38530909258493
  H   -1.37687875346520     -3.45139591029552     -0.01632194710073
  H   0.80153344187560     -2.55694910369941      0.53055051425950
  C   1.63081112413303     -0.16303788581250      0.26081445486789
  C   2.67480810660190     -1.04159681557890      0.57818955705254
  C   1.92893463208539      0.96543264974665     -0.51313835333284
  C   3.98570039005453     -0.74622181572617      0.21932421873668
  H   2.49275939857368     -1.92469222782078      1.17668276798141
  C   3.24369420228347      1.25316042292627     -0.86935896432774
  H   1.13709449864023      1.60768800698554     -0.87211898807423
  C   4.28344810109310      0.40356173076153     -0.50589747072577
  H   4.77413340859032     -1.43317711952017      0.50443241715508
  H   3.44259537361267      2.13718286668386     -1.46443739677806
  H   5.30502730300688      0.62845853127112     -0.78738082759672
  O   -3.42404861824811     -1.92216008274664     -0.74454077223673
  N   0.26839236110591     -0.54225215479602      0.52366227173679
