28
Coordinates from ORCA-job mp2_opt
  C   -1.32513598494474      2.69851078836496      0.21395350579646
  C   -0.35498148291570      1.71369532098953      0.16074410865519
  C   -0.73540533377808      0.36477265049772      0.04020076159885
  C   -2.10195957839556      0.02169752274775     -0.01135006041890
  C   -3.06365578498718      1.04078271921056      0.04135702824039
  C   -2.68557643963033      2.36554833197714      0.14897476911818
  H   -1.02276389396199      3.73533429079996      0.30908000640421
  H   0.69432365235825      1.97739669985042      0.21913056191007
  C   -2.54715661535885     -1.38576222187362     -0.10223152174735
  H   -4.10458171534010      0.74080603355240     -0.00197276924298
  H   -3.43636598416787      3.14623650329045      0.18906064645173
  C   -1.46640301107546     -2.34359297416979     -0.11222183230530
  C   -0.16488794883304     -1.94839842424061     -0.07261696108789
  H   -1.70262079478902     -3.39865110211254     -0.16622840356395
  H   0.65640980795499     -2.65617713801067     -0.10099315477857
  C   1.61218371312015     -0.32691665655422     -0.01567841090431
  C   2.19733211321515      0.17660344925234     -1.17653375001486
  C   2.36956062170134     -0.53648161806385      1.13442893057247
  C   3.55690858949721      0.47509103531085     -1.18166410039926
  H   1.58364779719233      0.32735370767946     -2.05816577960171
  C   3.73184329627750     -0.24380594916867      1.11827867195980
  H   1.88611404999022     -0.91915723389857      2.02685832512736
  C   4.32454349143013      0.26440751129985     -0.03620390166390
  H   4.01853567761548      0.86490236061417     -2.08154861802836
  H   4.32734847421850     -0.40601236476917      2.00914571367977
  H   5.38343197971717      0.49461660845528     -0.04451995268793
  O   -3.74118040819742     -1.69528920947302     -0.15987053712852
  N   0.22100571208693     -0.64143364155812     -0.01110127594068
