28
Coordinates from ORCA-job mp2_opt
  C   -1.45671825589978      2.66803975274900     -0.36851876994736
  C   -0.44634414334333      1.72425832650377     -0.33111018157160
  C   -0.75664707357920      0.37005068000867     -0.10712826713039
  C   -2.10527552767804     -0.02087248413886      0.02413795726401
  C   -3.11002266013848      0.95695963208284     -0.01346894841978
  C   -2.79553733170174      2.28937651409843     -0.19657576686796
  H   -1.20258107789514      3.70777907519567     -0.54147459454956
  H   0.58153906078882      2.02676517149324     -0.48681587077112
  C   -2.49683538612589     -1.43967566962710      0.16654634958376
  H   -4.13327390716905      0.61622924044030      0.09645983951297
  H   -3.57872415515878      3.03812339537847     -0.22211914977304
  C   -1.38261856991237     -2.35718789686419      0.15195782091910
  C   -0.10016999722955     -1.91708148588775      0.05199691777016
  H   -1.57537627042430     -3.41766695920671      0.25314818839015
  H   0.74368066679209     -2.59604861911999      0.09488028729116
  C   1.62374562166142     -0.25426475985833     -0.02443284932100
  C   2.50842680177951     -0.84188041475794     -0.92802399205346
  C   2.09702173231173      0.59837945764162      0.97451765405262
  C   3.87021820027971     -0.56253925872974     -0.83979491426301
  H   2.12362260859905     -1.49516723512913     -1.70345148130495
  C   3.45691803992582      0.88351323519454      1.04577035961817
  H   1.40110944199508      1.02124769727035      1.69057666375641
  C   4.34668403971191      0.30404240402155      0.14132492740789
  H   4.55609142689425     -1.01630389150261     -1.54579279323173
  H   3.82381783396811      1.54510512146996      1.82195303631721
  H   5.40573833414957      0.52441766743899      0.20402475418971
  O   -3.67524992982539     -1.78890517655850      0.28298960446860
  N   0.24278547722396     -0.59968651960656     -0.07648178133696
