28
Coordinates from ORCA-job mp2_opt
  C   -1.39923490157636      2.68084238582663      0.31916150140703
  C   -0.40551065985921      1.72055574592047      0.25869218277996
  C   -0.74720889021876      0.36867021196115      0.07100015631327
  C   -2.10484527139555     -0.00239806910340     -0.01750160249442
  C   -3.09167241307056      0.99219214134204      0.04285299235233
  C   -2.74912493571889      2.32112384745701      0.20138329432932
  H   -1.12306475175382      3.71912620607024      0.46486419845706
  H   0.63314851772521      2.00758896743120      0.36648740934199
  C   -2.52026538500081     -1.41617348620129     -0.14355936318749
  H   -4.12351876663449      0.66826010856858     -0.03220010208075
  H   -3.51890187270630      3.08280838861154      0.24557905138156
  C   -1.42006964051075     -2.35098418268039     -0.14955779675939
  C   -0.12849665615765     -1.92973668103115     -0.08383192204991
  H   -1.63232301828756     -3.40936693835304     -0.23148571695804
  H   0.70598198322134     -2.62077314317209     -0.12672778910643
  C   1.61943362952370     -0.28648157553019     -0.00783801997219
  C   2.45118884573440     -0.75387876114046      1.00813865421222
  C   2.13900282567886      0.46078527104881     -1.06530621975113
  C   3.81457531226639     -0.47032527492831      0.96377684312317
  H   2.02388249522341     -1.32296901345434      1.82670300858594
  C   3.49935891123676      0.75162048492160     -1.09418468940683
  H   1.47620472859770      0.80050048992786     -1.85375371566860
  C   4.33926495722449      0.28508568852055     -0.08280173069022
  H   4.46362272963416     -0.83224589528722      1.75265857547851
  H   3.90633184744803      1.32996736104022     -1.91556174091979
  H   5.39922948466058      0.50820725139517     -0.11218752991721
  O   -3.70636838927364     -1.74827021423366     -0.22984199177313
  N   0.23358528398932     -0.61645331492752      0.01370206297319
