28
Coordinates from ORCA-job mp2_opt
  C   -1.50541181967627      2.64643609723833     -0.44524155529501
  C   -0.48838590039383      1.70973286501066     -0.46709168805624
  C   -0.75955230114179      0.35999830375360     -0.17144883885492
  C   -2.09357015669163     -0.03619067123646      0.05353538587194
  C   -3.10755040767974      0.93310166745554      0.07659201358740
  C   -2.82186524259048      2.26427043012835     -0.15267081269943
  H   -1.27625838390513      3.68084510681088     -0.67543930431001
  H   0.51600477475450      2.01406842012307     -0.73156385125137
  C   -2.47282325303761     -1.45588084116781      0.21058710138865
  H   -4.11691426742705      0.58378830858512      0.26186297171230
  H   -3.61187639126377      3.00592254892789     -0.13229776911794
  C   -1.36165962248337     -2.36921974754355      0.09511468133176
  C   -0.09063617523513     -1.92276934880485     -0.07330773963915
  H   -1.54222504889769     -3.43176482026766      0.19811385041827
  H   0.74880083429271     -2.60663922930557     -0.06254739130996
  C   1.63071140828628     -0.27561665323455     -0.03171280911803
  C   2.01953328806769      0.78329311066652      0.79158617862587
  C   2.59849214800857     -0.98968693619243     -0.74416164698715
  C   3.37033972636963      1.08845140410399      0.93447189569260
  H   1.27543664227568      1.33162522689012      1.35607347440681
  C   3.94672875535179     -0.68373626053452     -0.58719261997318
  H   2.29363578002560     -1.76655630506381     -1.43586253865570
  C   4.33921919547790      0.36019456924280      0.24762997561671
  H   3.66213252830112      1.90055811544457      1.59039827428541
  H   4.68797918467352     -1.24709919923753     -1.14226718534394
  H   5.38871930611625      0.60438615884352      0.36070929701930
  O   -3.63720533738161     -1.80880512161041      0.41560340545681
  N   0.25418773580383     -0.60190519902581     -0.22765575480179
