28
Coordinates from ORCA-job mp2_opt
  C   -1.30411919252309      2.70342703508333      0.15129327582828
  C   -0.34101598855727      1.71092989413803      0.11450593126650
  C   -0.73201675786452      0.36235306261860      0.03003839133937
  C   -2.10087350812492      0.02732552511128     -0.00837491318723
  C   -3.05521875733576      1.05399181858927      0.02792094095158
  C   -2.66718040433108      2.37814711064444      0.10417962483922
  H   -0.99429762048776      3.74024214056044      0.21829296300040
  H   0.71082478040759      1.96807639501287      0.15623543762941
  C   -2.55446685064741     -1.37881892048828     -0.07413621690472
  H   -4.09851202334603      0.76084590621528     -0.00412858039069
  H   -3.41235917726691      3.16474997684619      0.13175070321482
  C   -1.47932945490223     -2.34319719627523     -0.07872204922618
  C   -0.17512185748728     -1.95550247053435     -0.04926181385077
  H   -1.72240445462953     -3.39740243821305     -0.11634238522260
  H   0.64212574457716     -2.66835640694886     -0.06745296822670
  C   1.61003243272374     -0.33894954854418     -0.01060161369592
  C   2.22074692318862      0.04905000139913     -1.20189197303809
  C   2.33986656515949     -0.42970934009951      1.17218086550666
  C   3.57941237534952      0.35292741783450     -1.20494571322099
  H   1.62673882799625      0.11039162566982     -2.10743114882614
  C   3.70061159533755     -0.13012146673179      1.15951495803408
  H   1.83631379299427     -0.72627440464593      2.08595824412190
  C   4.31914452538673      0.26384758901399     -0.02593030168505
  H   4.06133145986191      0.65383848929335     -2.12799240146122
  H   4.27530964817885     -0.19978820339865      2.07577467857128
  H   5.37687959640507      0.49940042820045     -0.03178751803313
  O   -3.75060548592339     -1.68234272367555     -0.11821514046833
  N   0.21757726586043     -0.65024929667556     -0.00656827686573
