28
Coordinates from ORCA-job mp2_opt
  C   -1.30019664745606      2.70224932520180     -0.14124721794371
  C   -0.33824362491967      1.70848042956085     -0.10862949655527
  C   -0.73078903990606      0.36005771186150     -0.02867136713344
  C   -2.10005111922555      0.02660416395528      0.00933947769361
  C   -3.05318000421359      1.05454702004378     -0.02267702562580
  C   -2.66362208152371      2.37849878809873     -0.09440509784063
  H   -0.98913017003302      3.73890398847878     -0.20482221515986
  H   0.71382986147572      1.96461851594275     -0.15026014153171
  C   -2.55549038966148     -1.37918455311128      0.07013327726300
  H   -4.09678023578199      0.76245124931377      0.00893464599458
  H   -3.40785531983988      3.16609687210608     -0.11871989987362
  C   -1.48164730996339     -2.34500049371032      0.07042309211921
  C   -0.17697551422528     -1.95886087860202      0.04165189917385
  H   -1.72619223105121     -3.39898992400680      0.10423536200602
  H   0.63935329778110     -2.67284192503701      0.05680586740398
  C   1.61026327665367     -0.34440309463565      0.00930483716098
  C   2.33963210616917     -0.42733063014474     -1.17432482987523
  C   2.21951103145585      0.04448766824758      1.20104974560035
  C   3.69944324513537     -0.12351681170104     -1.16113298388219
  H   1.83659550396458     -0.72191571481505     -2.08902287968441
  C   3.57721344333300      0.35262647249808      1.20465302090333
  H   1.62531525027633      0.10251519230144      2.10668267367742
  C   4.31701313102309      0.26906707265112      0.02527956171573
  H   4.27390798452620     -0.18787382298282     -2.07792605819073
  H   4.05812950605311      0.65349147140804      2.12823487875241
  H   5.37393295627218      0.50821506890051      0.03152807440135
  O   -3.75201581078359     -1.68125913633750      0.11376930935352
  N   0.21746090446511     -0.65398702548585      0.00343649007724
