24
Coordinates from ORCA-job mp2_opt
  C   1.77203022634790     -0.64493824264371     -0.09417208146808
  C   1.80033870348720      0.74053512162638      0.09420364819385
  C   3.02296178145601      1.40741192113894      0.19487550003560
  C   4.17401174851112      0.63529700952333      0.09675428743383
  C   4.11688203217252     -0.75768602641439     -0.09693781550780
  C   2.90558504350100     -1.43648127946994     -0.19740823689733
  H   3.06164014827640      2.47982238154214      0.34379139996061
  H   5.14362426798885      1.11372682524603      0.16992820470508
  H   5.04185312729152     -1.31798882937580     -0.16886669525110
  H   2.85104041186904     -2.50756422672331     -0.34623937838839
  C   -0.23513252916026      0.14307913541834     -0.00276405662197
  C   -1.68618166572554      0.05442585963146      0.00943912593791
  C   -2.43843208354480      1.21322693717064     -0.21598576383658
  C   -2.32860160558095     -1.17094293551633      0.21872625919088
  C   -3.82616426839343      1.14408344962313     -0.21214307243464
  H   -1.92094570489408      2.15027189605247     -0.38495322346003
  C   -3.71838795202194     -1.22803738908398      0.21949473867682
  H   -1.73931571385710     -2.06454782707748      0.38602674687010
  C   -4.47050836354183     -0.07419646153900      0.00508378103077
  H   -4.40883319246773      2.04148009816478     -0.38605896845249
  H   -4.21621705030067     -2.17601726411284      0.38844389234959
  H   -5.55332373387691     -0.12382367050763      0.00570669454063
  N   0.49600089335333      1.21107046692679      0.15454334215098
  O   0.46402547911034     -1.03173394960001     -0.15564332875824
