24
Coordinates from ORCA-job mp2_opt
  C   1.77451688908488     -0.64028372462994      0.11743343097029
  C   1.79705833642557      0.73912686038411     -0.11178245477665
  C   3.01656112481907      1.40498688152424     -0.24962676851317
  C   4.17068588556227      0.63831696488313     -0.14524125049598
  C   4.11955294165401     -0.74844842938276      0.09041120247817
  C   2.91134340722383     -1.42620064767394      0.22789231247393
  H   3.05059968199626      2.47256445439916     -0.43080178354862
  H   5.13805298939391      1.11625290895795     -0.24631574244998
  H   5.04673963862388     -1.30460385171231      0.16593299856316
  H   2.86140073363297     -2.49249098149348      0.40914683682899
  C   -0.23536389660404      0.14116283595913      0.03077734689915
  C   -1.68631508249174      0.04661405045472      0.03123912942758
  C   -2.32442416732230     -1.16472371984491     -0.25749112712742
  C   -2.44205371354208      1.20061476369417      0.26778377713183
  C   -3.71388435540912     -1.21964050061064     -0.29146580066483
  H   -1.73155895343843     -2.05050642055666     -0.45214553147202
  C   -3.82950937707560      1.13397051845367      0.23050193208382
  H   -1.92791159708930      2.13134329728316      0.47713508215019
  C   -4.46960677633789     -0.07392449030023     -0.04802940139029
  H   -4.20843204686101     -2.15777203936015     -0.51593349473880
  H   -4.41519422648970      2.02630895987453      0.41952697268445
  H   -5.55214322025305     -0.12147462986290     -0.07598604729114
  N   0.49072723740781      1.20533952269389     -0.16848593629080
  O   0.46829554708978     -1.02762758313393      0.20827531706813
