24
Coordinates from ORCA-job mp2_opt
  C   1.77391854325529     -0.64724504981917      0.07016342992245
  C   1.79890989673347      0.74386715873018     -0.07097040273628
  C   3.02000312036171      1.41607987502815     -0.15368862567734
  C   4.17268845413336      0.64303671195092     -0.08690562603966
  C   4.11876796502499     -0.75588243414908      0.05863013264810
  C   2.90904957356106     -1.43998390601323      0.14073046906910
  H   3.05635319646754      2.49307452152683     -0.26551032567425
  H   5.14119939090759      1.12543642678337     -0.14734448754596
  H   5.04496677292061     -1.31665778617214      0.10712890018676
  H   2.85683344246475     -2.51569367081343      0.25250585927762
  C   -0.23525537957360      0.13928626350750      0.01262565978558
  C   -1.68615538571437      0.04934696936884      0.01438288685963
  C   -2.32958769780736     -1.18121964530055     -0.15910749720931
  C   -2.43803705686116      1.22101988897127      0.16190491262201
  C   -3.71940687881773     -1.23499118393447     -0.17598380604603
  H   -1.74121649559056     -2.08280031042794     -0.27998962334346
  C   -3.82565754000254      1.15478996787565      0.14248339341713
  H   -1.92008802894267      2.16422535675899      0.28988694842479
  C   -4.47097957958603     -0.07074721055776     -0.02596148037390
  H   -4.21757610712250     -2.18811431412925     -0.31173182877141
  H   -4.40779218897351      2.06166375298112      0.26001612222445
  H   -5.55383733783280     -0.11754154798120     -0.04011227669465
  N   0.49361779783822      1.21363045967475     -0.10815798918332
  O   0.46702852315625     -1.03820929385935      0.12406525485793
