24
Coordinates from ORCA-job mp2_opt
  C   1.77067220002320     -0.61933292934936     -0.20468384479132
  C   1.81140105067128      0.71447650110617      0.21020887475709
  C   3.03824807891844      1.34546502428872      0.42072929564778
  C   4.18306809425153      0.58951677362749      0.20001971018687
  C   4.11469053995059     -0.75294986422348     -0.21768438576306
  C   2.89829453189579     -1.39413723000857     -0.43229673972760
  H   3.08506167994908      2.37892901267399      0.74202055469137
  H   5.15649073322225      1.04089144299014      0.35221299937916
  H   5.03506518681141     -1.30294669660247     -0.37634486474096
  H   2.83455330200717     -2.42636671278437     -0.75266776685019
  C   -0.22953693029795      0.16335648713830      0.01587786330300
  C   -1.69349365784911      0.06870810103429      0.00526379644239
  C   -2.36272398019152     -0.45864358998487      1.11246163084836
  C   -2.41731271396330      0.52745191531856     -1.09767721563771
  C   -3.75242739015889     -0.53381616030643      1.10998137500520
  H   -1.79310652078073     -0.80249127990787      1.96880499143308
  C   -3.80707429738214      0.44938635316876     -1.09445460907836
  H   -1.88909632128557      0.94608959209333     -1.94711135860647
  C   -4.47529901753225     -0.08129134601762      0.00748248163423
  H   -4.27126731652995     -0.94064603835159      1.97030390667508
  H   -4.36852928780396      0.80534460491747     -1.95049277880474
  H   -5.55765321227230     -0.13883070918917      0.00868092863777
  N   0.50750147708311      1.18276797873290      0.34570989515696
  O   0.45863877126380     -0.97850623036431     -0.33011473979793
