24
Coordinates from ORCA-job mp2_opt
  C   1.77801150374587     -0.58564967570664     -0.27885900301753
  C   1.79781201860182      0.69518255832697      0.28068166795759
  C   3.01435198436872      1.30534480428140      0.59044404054105
  C   4.17015565348019      0.58694963063789      0.31032235292554
  C   4.12285425282885     -0.69918557215708     -0.25986273798428
  C   2.91707977565515     -1.32055161227314     -0.57140097684417
  H   3.04514614723141      2.29576599581849      1.02808378383907
  H   5.13618402638272      1.02413949206895      0.53436581828323
  H   5.05158841645183     -1.22024176441537     -0.46160355357103
  H   2.86975627402668     -2.30937271842850     -1.00964973239307
  C   -0.23272915355627      0.15778630975265     -0.02579770289955
  C   -1.69040241945184      0.04144850509231     -0.03293727696365
  C   -2.31251170198306     -0.96245546486732      0.71501867820875
  C   -2.45993775652409      0.99199300967574     -0.70842261818603
  C   -3.70146989064650     -1.02973897976891      0.75980101662109
  H   -1.70687691708352     -1.68267333389241      1.25395543197219
  C   -3.84850060298985      0.91575938838983     -0.66245097366999
  H   -1.96366326121927      1.78069709946649     -1.26244673434494
  C   -4.47076574424693     -0.09392142913099      0.07001736154639
  H   -4.18383450065004     -1.80695434504318      1.34134841666787
  H   -4.44582138529591      1.64695921178188     -1.19490148045333
  H   -5.55259393481265     -0.14864152508350      0.10718201481843
  N   0.48821640793518      1.13600810792065      0.43958733251067
  O   0.47239680775152     -0.93814969244621     -0.47116612556428
