24
Coordinates from ORCA-job mp2_opt
  C   1.77616895022341     -0.58112207605414      0.29362756504419
  C   1.80312641844249      0.68438544777051     -0.29884787158948
  C   3.02310215913039      1.28462473487030     -0.61403068934302
  C   4.17523158620269      0.57109117001528     -0.30745415068001
  C   4.12081760759953     -0.70056819057310      0.29360647491941
  C   2.91144608346505     -1.31129355218199      0.61195062773762
  H   3.05929005719083      2.26387200108360     -1.07574105054010
  H   5.14388358719188      1.00068235518117     -0.53487447658473
  H   5.04687332473936     -1.21875512029954      0.51420010570003
  H   2.85866056740388     -2.28905053010545      1.07374656690304
  C   -0.23112195839336      0.15888950686840      0.00416921878329
  C   -1.69204897989870      0.04866422300712      0.01553181582282
  C   -2.32827919976408     -0.82453560323039     -0.87097257812307
  C   -2.44874530347399      0.86773361679365      0.85647769271119
  C   -3.71781152961483     -0.89381873375441     -0.89523777391003
  H   -1.73331576159847     -1.44307060830396     -1.53397085425630
  C   -3.83818039839821      0.79160971338069      0.82901801326747
  H   -1.94418550004719      1.55799901171176      1.52314631885865
  C   -4.47380945609261     -0.08843687226884     -0.04507987791652
  H   -4.21076097880184     -1.56988133029904     -1.58436640548381
  H   -4.42500006713316      1.42264650898233      1.48658752864416
  H   -5.55600193042286     -0.14355208991413     -0.06663337218775
  N   0.49505448221735      1.12392045301254     -0.47844085684074
  O   0.46823723983246     -0.92581903569235      0.48544502906371
