24
Coordinates from ORCA-job mp2_opt
  C   1.75846203914533     -0.58880205203477      0.27102755060830
  C   1.81619036431317      0.69181812943100     -0.28659934013966
  C   3.05128570344924      1.28049263302825     -0.56245745270444
  C   4.18628522830040      0.54195783245977     -0.25151108138565
  C   4.10076141550514     -0.74326783798828      0.31607153129098
  C   2.87624357529291     -1.34351017415233      0.59386636936062
  H   3.11132100797782      2.27054262590583     -0.99797642602880
  H   5.16547376444840      0.96246211433571     -0.44870070458473
  H   5.01423771579085     -1.28077667345277      0.54274921298190
  H   2.79970455505707     -2.33151242360232      1.02985165299204
  C   -0.23125890414434      0.19081347662612     -0.03394507937517
  C   -1.69076402071139      0.10118044635199     -0.04807126566901
  C   -2.45097024835815      1.00169539524870      0.70260708321470
  C   -2.31847684387345     -0.93035680669844     -0.75223934476656
  C   -3.83778814473067      0.88941171657691      0.71913094707197
  H   -1.94967626219322      1.78732712611135      1.25662732623795
  C   -3.70582795996542     -1.03369193513695     -0.73470687228885
  H   -1.71928382780292     -1.63627730107033     -1.31658782931467
  C   -4.46675859959112     -0.12627983776824      0.00087087618307
  H   -4.42765764883940      1.58945644532231      1.29960618790752
  H   -4.19336187924909     -1.82473392348077     -1.29281217117325
  H   -5.54718122342595     -0.21103958294066      0.01463285588515
  N   0.51934202187235      1.15599466458461     -0.47953620342273
  O   0.44203317173243     -0.91831805765668      0.42818517711933
