24
Coordinates from ORCA-job mp2_opt
  C   1.75831142014352     -0.58350369720205     -0.28600590786542
  C   1.81883549691525      0.68466651652050      0.29857263781847
  C   3.05492729689378      1.26492211067216      0.58701684784209
  C   4.18843808765660      0.52942829607839      0.26350202994415
  C   4.10026607761875     -0.74459037404179     -0.32832959814014
  C   2.87458563870449     -1.33550769510987     -0.62042239331820
  H   3.11691107373120      2.24620404974610      1.04166201950224
  H   5.16846601211713      0.94338940832764      0.47013049400882
  H   5.01260093598636     -1.28077987810348     -0.56258823557783
  H   2.79595714411588     -2.31501554899253     -1.07479426851301
  C   -0.22988129606706      0.19388411199116      0.03573789952359
  C   -1.69234156156809      0.10774944291630      0.04037188426228
  C   -2.44213139261241      0.87639862592737     -0.85284732792620
  C   -2.33076152166392     -0.79230891258288      0.89787507051379
  C   -3.82924313034915      0.76309541715970     -0.86763406720743
  H   -1.93491256319005      1.56371485783564     -1.52063000201547
  C   -3.71806640084581     -0.89864485754440      0.88009374799995
  H   -1.74003324711630     -1.39532982357665      1.57864832070372
  C   -4.46832590108411     -0.12283743277172     -0.00205045616539
  H   -4.41089962330895      1.36229059730117     -1.55869035197187
  H   -4.21345968476707     -1.58793095453489      1.55418203211689
  H   -5.54864363788829     -0.20872159631214     -0.01500064695588
  N   0.52233296949725      1.14824623773262      0.49970717148437
  O   0.44111680708101     -0.90590290143637     -0.45199290006351
