24
Coordinates from ORCA-job mp2_opt
  C   1.77347438479210     -0.59052523550704     -0.27442085108023
  C   1.80755414536410      0.68744415991313      0.28999215221121
  C   3.03097419520409      1.29385334892986      0.57862290554544
  C   4.17945475590822      0.57260390871427      0.27634766702825
  C   4.11794731408236     -0.71246796170078     -0.29476738315596
  C   2.90497369323134     -1.32916130763920     -0.58686933257835
  H   3.07249659265927      2.28351489461124      1.01710252494882
  H   5.15068340339414      1.00657739918669      0.48354936746936
  H   5.04134903648617     -1.23645767689410     -0.51279364132988
  H   2.84682198246600     -2.31721912917581     -1.02551097624501
  C   -0.23018594082672      0.15779721684700      0.01947770270058
  C   -1.69293826237711      0.05626965998320      0.00384883168350
  C   -2.34687087056938     -0.69749088381983      0.98185642077595
  C   -2.43220428075171      0.75181020384126     -0.95550548886858
  C   -3.73668894363861     -0.76873831790107      0.98591053921168
  H   -1.76525558253534     -1.22142015584141      1.73241961153304
  C   -3.82194091076652      0.67486490211970     -0.94738428648341
  H   -1.91499945774520      1.34905227674959     -1.69813922401223
  C   -4.47497287860340     -0.08512293050541      0.02130918028471
  H   -4.24355970607511     -1.35185852726167      1.74614685849270
  H   -4.39537421576498      1.21159715635480     -1.69437469793777
  H   -5.55731506018063     -0.14158249065689      0.02690824463169
  N   0.50151472041724      1.13329872790565      0.47086145860984
  O   0.46326688582969     -0.93749123825318     -0.44651758343537
