24
Coordinates from ORCA-job mp2_opt
  C   1.76363044568497     -0.61442809096160     -0.20362955555274
  C   1.80805082232005      0.72197202986962      0.20503680788010
  C   3.03789834950845      1.34776292179128      0.41647304313794
  C   4.17986350688066      0.58694337086529      0.19788958438873
  C   4.10682639582996     -0.75567538499894     -0.21874003355888
  C   2.88801872970313     -1.39312503218181     -0.43193895735455
  H   3.08897712282498      2.38135197746996      0.73675772656094
  H   5.15500359332713      1.03447756636227      0.35040194094960
  H   5.02533673202992     -1.30872975970601     -0.37754620099982
  H   2.82065359000934     -2.42527777138205     -0.75188374856559
  C   -0.23369096618055      0.17541086556677      0.00650873437258
  C   -1.68772390456675      0.08203924015959      0.03200076975823
  C   -2.45317176891722      1.13748460886470     -0.47379824369782
  C   -2.31241228443862     -1.07886360967218      0.49922287264880
  C   -3.84041298567278      1.04178856869200     -0.47939968915181
  H   -1.95024134979617      2.02251401999817     -0.84638378438996
  C   -3.70080633156691     -1.16342383681204      0.49393360509333
  H   -1.70971266062783     -1.89865203357019      0.87271002658872
  C   -4.46676123248246     -0.10650826344689      0.00415537172782
  H   -4.43472401997718      1.85924801842933     -0.87108322807919
  H   -4.18643137348350     -2.05690735406819      0.86928017107899
  H   -5.54827792471495     -0.17838311073627     -0.00288619835910
  N   0.50772583854664      1.19271107299383      0.34153077344944
  O   0.45121967575968     -0.97046701352662     -0.32771478792576
