24
Coordinates from ORCA-job mp2_opt
  C   1.75846884441272     -0.58885363122587     -0.27110503600400
  C   1.81619827061987      0.69173936359316      0.28658145213018
  C   3.05129857958692      1.28039520003308      0.56246330553725
  C   4.18629258456763      0.54187012999813      0.25147687231100
  C   4.10076380087491     -0.74332983742737     -0.31616587559193
  C   2.87624342359512     -1.34355457284335     -0.59398398702518
  H   3.11133142985400      2.27042450161925      0.99802984485298
  H   5.16548605719029      0.96235650894735      0.44868020556715
  H   5.01424370388233     -1.28082218917972     -0.54286795355659
  H   2.79968300952430     -2.33153470052765     -1.03001563950411
  C   -0.23125102543259      0.19075003235290      0.03390432117514
  C   -1.69075632217042      0.10112339862414      0.04803097505605
  C   -2.45096682594142      1.00167882536525     -0.70259337307628
  C   -2.31846757251956     -0.93044308364704      0.75215921085899
  C   -3.83778647460001      0.88941037163263     -0.71910497505048
  H   -1.94966836448148      1.78732918741042     -1.25658337934675
  C   -3.70581891042499     -1.03376316311719      0.73463897333222
  H   -1.71927547914211     -1.63639983561489      1.31646319536256
  C   -4.46675424904855     -0.12630711924671     -0.00088296212296
  H   -4.42763939821488      1.58949686384730     -1.29954641093811
  H   -4.19336072328210     -1.82482462851914      1.29270967786766
  H   -5.54717663922405     -0.21106685377496     -0.01461947868967
  N   0.51935203734877      1.15590958218797      0.47954226418849
  O   0.44203724302530     -0.91835935048770     -0.42827922733360
