24
Coordinates from ORCA-job mp2_opt
  C   1.75799839615546     -0.58424930104984     -0.28254161349043
  C   1.81782697036524      0.68661735229660      0.29647191945577
  C   3.05374491659785      1.26876030936260      0.58209324474325
  C   4.18759379651361      0.53305539797785      0.26034404105066
  C   4.10004191142751     -0.74310642784430     -0.32697993252080
  C   2.87461674900948     -1.33627925175452     -0.61562356673298
  H   3.11531434026136      2.25177746736378      1.03304475432292
  H   5.16743288902592      0.94861700663787      0.46465010235297
  H   5.01266312774957     -1.27911178222507     -0.56054625083299
  H   2.79646406668528     -2.31734178072818     -1.06671579999806
  C   -0.23054797412620      0.19371162778286      0.03502228959684
  C   -1.69155109985404      0.10551654401840      0.04570193252750
  C   -2.44815360487063      0.94942683752147     -0.77098043748393
  C   -2.32285650007161     -0.87223668076989      0.81966091325681
  C   -3.83503133940360      0.83547892822181     -0.78667697673462
  H   -1.94522115914934      1.69429356638662     -1.37739798556606
  C   -3.71009298923281     -0.97823595066310      0.80193420908798
  H   -1.72668043271130     -1.53467120284578      1.43749986977745
  C   -4.46734612406629     -0.12661698406627     -0.00092297232303
  H   -4.42201152053647      1.49248690294817     -1.41813762798484
  H   -4.20015474837767     -1.72724038510229      1.41329183744884
  H   -5.54765000047305     -0.21271805050907     -0.01415469330217
  N   0.52138857417984      1.14983339573514      0.49666208821236
  O   0.44100575490190     -0.90839053869484     -0.44644634486346
