24
Coordinates from ORCA-job mp2_opt
  C   1.77619064661573     -0.58102965525071     -0.29349457297941
  C   1.80309997001905      0.68452960799002      0.29886275332495
  C   3.02305426309495      1.28482096843111      0.61403206196888
  C   4.17520749399414      0.57127798471501      0.30755931422090
  C   4.12083834682438     -0.70043840844915     -0.29338557143494
  C   2.91148781456433     -1.31121430957569     -0.61171643332616
  H   3.05921905249354      2.26411193976823      1.07565062087087
  H   5.14384370807160      1.00090825604914      0.53497336344634
  H   5.04691255892453     -1.21862720202223     -0.51389815265707
  H   2.85872272605782     -2.28901517129849     -1.07342159080474
  C   -0.23112617629323      0.15896352318923     -0.00417052151387
  C   -1.69205241922720      0.04872166014097     -0.01557256256656
  C   -2.32831568546625     -0.82439450077052      0.87098981832712
  C   -2.44871925758993      0.86771186886591     -0.85662214319762
  C   -3.71784850331634     -0.89367681522632      0.89520659859095
  H   -1.73337932305151     -1.44286828059413      1.53407001345664
  C   -3.83815530308391      0.79158967368070     -0.82920689233833
  H   -1.94413682096067      1.55791801753467     -1.52333533602510
  C   -4.47381639238129     -0.08837558367229      0.04494674461305
  H   -4.21082394003460     -1.56967599775567      1.58437946950038
  H   -4.42494777657044      1.42256689359856     -1.48685839102197
  H   -5.55600977164495     -0.14349169232528      0.06646883811226
  N   0.49501228144037      1.12405776777265      0.47837073347155
  O   0.46826750751991     -0.92577354479572     -0.48532416203813
