24
Coordinates from ORCA-job mp2_opt
  C   1.77393207012390     -0.64945207333946     -0.04603847786492
  C   1.79963373252658      0.74542625318727      0.05011899931126
  C   3.02117281166919      1.41973602145918      0.10455935581708
  C   4.17338469763417      0.64457188417315      0.05701887676091
  C   4.11862923756441     -0.75832862942305     -0.04238201238033
  C   2.90847928996625     -1.44448697417073     -0.09618617877144
  H   3.05823486874790      2.49981011338916      0.18080215017829
  H   5.14224134220677      1.12841214289677      0.09651188646697
  H   5.04450461308501     -1.32064037892357     -0.07715206614449
  H   2.85551576296155     -2.52326361940884     -0.17248730143386
  C   -0.23513327804204      0.13873946611342     -0.00387426636244
  C   -1.68611266977634      0.05014678156842     -0.00616705595255
  C   -2.33134600998241     -1.18634386609601      0.10946298078739
  C   -2.43697962782751      1.22741316364899     -0.10838824371674
  C   -3.72124680519995     -1.23957990421814      0.11806553592326
  H   -1.74459654847095     -2.09314384845586      0.19271992270102
  C   -3.82463105544902      1.16137830395782     -0.09827505113609
  H   -1.91797169553003      2.17474682873661     -0.19462988678172
  C   -4.47163080486080     -0.06964897589317      0.01462085692263
  H   -4.22045233760104     -2.19748185399778      0.20894624877529
  H   -4.40555415032614      2.07300280981703     -0.17961917901606
  H   -5.55457451008389     -0.11616920765527      0.02179378017090
  N   0.49468646087444      1.21623368254148      0.07704702565897
  O   0.46691360578995     -1.04149911990741     -0.08098389991331
