24
Coordinates from ORCA-job mp2_opt
  C   1.77391967331426     -0.64722301896032     -0.07013084316330
  C   1.79890866759117      0.74388719645891      0.07102224784784
  C   3.02000403341119      1.41609603394024      0.15374574644323
  C   4.17268905684036      0.64305418881837      0.08694404637948
  C   4.11876907908199     -0.75586203628140     -0.05861447560358
  C   2.90904918162356     -1.43996150461038     -0.14071609256942
  H   3.05636940816427      2.49308826901941      0.26558487983015
  H   5.14119721448410      1.12545912869340      0.14738670040112
  H   5.04496539046505     -1.31664061838115     -0.10712272846987
  H   2.85683409065674     -2.51566974110277     -0.25250606976692
  C   -0.23525631635178      0.13930201064400     -0.01257359704870
  C   -1.68615624577288      0.04936258863686     -0.01434002690557
  C   -2.32960095919527     -1.18120005259158      0.15913102292646
  C   -2.43803083008620      1.22104474686307     -0.16184051690888
  C   -3.71942362204588     -1.23497091804509      0.17600300657369
  H   -1.74124366683570     -2.08279276706506      0.27999625852917
  C   -3.82564939263990      1.15483593957732     -0.14241594299927
  H   -1.92006361925085      2.16424289267793     -0.28980136766516
  C   -4.47099520366389     -0.07071126713356      0.02599900601381
  H   -4.21758706754693     -2.18809991722198      0.31173019024985
  H   -4.40777314907528      2.06171802312698     -0.25993640108235
  H   -5.55385308198858     -0.11749333777766      0.04014293177742
  N   0.49361605572825      1.21364615961836      0.10822088994973
  O   0.46702930309219     -1.03819099890391     -0.12402786473893
