24
Coordinates from ORCA-job mp2_opt
  C   1.77096578827881     -0.64088992443523      0.11676475492605
  C   1.80107184529374      0.73776315775432     -0.11606233526215
  C   3.02447300127176      1.39914048125946     -0.24014451317291
  C   4.17458299104383      0.62892850564440     -0.11890469095191
  C   4.11573713187557     -0.75695244217116      0.12017962911608
  C   2.90362110978593     -1.43024932811035      0.24434990176942
  H   3.06440627691419      2.46605621096078     -0.42400364646762
  H   5.14476194276661      1.10328775104735     -0.20916849518595
  H   5.04000437955782     -1.31598564478874      0.20907268081327
  H   2.84773516074254     -2.49580713567394      0.42815288812174
  C   -0.23500147541277      0.14702140909480      0.00329134434010
  C   -1.68623942709010      0.05768573876419     -0.01361891596236
  C   -2.44039535455750      1.20278770035492      0.26723425803060
  C   -2.32612974847800     -1.15930097356382     -0.27291264529350
  C   -3.82813471646502      1.13074328712126      0.26378950519550
  H   -1.92481708497828      2.13283593473717      0.47628280972514
  C   -3.71577321008903     -1.21963846269278     -0.27334352398820
  H   -1.73475928544156     -2.04323187736373     -0.48000629203024
  C   -4.46993711337673     -0.07826161881712     -0.00585516219945
  H   -4.41250202463754      2.01767940796086      0.48031717588581
  H   -4.21191177663211     -2.16044879036186     -0.48256359563181
  H   -5.55261903737169     -0.13058993393224     -0.00585114418819
  N   0.49715229433704      1.20803583533994     -0.19104994197846
  O   0.46240933266250     -1.02371128812849      0.19192795438904
