24
Coordinates from ORCA-job mp2_opt
  C   1.76970472017191     -0.63584831261348      0.13911701290736
  C   1.80212590175410      0.73432469505326     -0.13883115211312
  C   3.02656268471393      1.38891966472101     -0.28581141699041
  C   4.17539776738761      0.62106427662021     -0.14010937285749
  C   4.11428459190160     -0.75602707039487      0.14492887802377
  C   2.90109166642281     -1.42253928305566      0.29228066184982
  H   3.06822186420842      2.44904833125101     -0.50502287675052
  H   5.14634601757503      1.09039665813747     -0.24689904170258
  H   5.03761254670593     -1.31347894853039      0.25176552898964
  H   2.84337019972299     -2.48127918441256      0.51146117197153
  C   -0.23481020873907      0.15177954030241      0.00179065055356
  C   -1.68642874448844      0.06160600696627     -0.01827676441544
  C   -2.44262939679832      1.18976582890376      0.31880676423523
  C   -2.32350482767558     -1.14470136718529     -0.32872073025403
  C   -3.83034820740155      1.11392208506513      0.31725863054097
  H   -1.92922435402455      2.11111503740467      0.56811766623338
  C   -3.71297696857998     -1.20904847004643     -0.32816947231515
  H   -1.72986808929426     -2.01661424224181     -0.57669152175095
  C   -4.46929800843578     -0.08336308305734     -0.00562157303450
  H   -4.41657136377844      1.98778352181955      0.57740685615751
  H   -4.20728334644682     -2.14075314247137     -0.57844518564373
  H   -5.55180818599066     -0.13902209459166     -0.00410147283091
  N   0.49874928982429      1.20421292106331     -0.22926652167660
  O   0.46049745126484     -1.01374336870718      0.22724028087264
