24
Coordinates from ORCA-job mp2_opt
  C   1.77761222202712     -0.59136423932243     -0.26404170519179
  C   1.79656355817314      0.70381443307898      0.26181657018172
  C   3.01277924433006      1.32103695693966      0.55883040313243
  C   4.16887571063203      0.59485162750973      0.30082646648706
  C   4.12229772591881     -0.70575935737653     -0.23566169282753
  C   2.91693965923636     -1.33435609709873     -0.53414373170675
  H   3.04311458717464      2.32247811981289      0.97066616792841
  H   5.13456744267054      1.03713482446798      0.51611385532380
  H   5.05119915940798     -1.23251935864605     -0.42114898412081
  H   2.87011624333990     -2.33436310235985     -0.94632519647350
  C   -0.23336658096884      0.15880872664329     -0.03493328857295
  C   -1.68954755604632      0.04213592379197     -0.03938836481170
  C   -2.30786620566350     -1.00641419338662      0.64837760283348
  C   -2.46232774917366      1.03571251588400     -0.64623997858207
  C   -3.69650156025766     -1.07413457304655      0.69939951060347
  H   -1.69944702463283     -1.76029775120663      1.13547423560580
  C   -3.85040068637946      0.95811294857883     -0.59499908056575
  H   -1.96771915282516      1.85698725776573     -1.15226096875089
  C   -4.46926325890601     -0.09529059815269      0.07639253815302
  H   -4.17605973664017     -1.88588533436758      1.23422899860676
  H   -4.45046945414205      1.72215482534084     -1.07569833638137
  H   -5.55091161129559     -0.15126151721039      0.11741431535242
  N   0.48711540267937      1.14886924666202      0.40652519335937
  O   0.47242362134130     -0.94820028430185     -0.45020352958261
