24
Coordinates from ORCA-job mp2_opt
  C   1.76604273932452     -0.62232211408107      0.18327202063764
  C   1.80562991621675      0.72652176083509     -0.18331540604286
  C   3.03339381207023      1.36293924531460     -0.37451845171665
  C   4.17808497951044      0.59969506386012     -0.18020461184353
  C   4.10979469510073     -0.75557314663292      0.19404175904592
  C   2.89321992445664     -1.40378660215925      0.38663552843120
  H   3.08066025797801      2.40623404488651     -0.66236305918165
  H   5.15151105913835      1.05544791372331     -0.31861219832276
  H   5.03012279810488     -1.31026066653979      0.33562401268580
  H   2.82965538437711     -2.44568121912278      0.67418476022702
  C   -0.23419041940154      0.16625160478684     -0.00244129710484
  C   -1.68714556397239      0.07379702608028     -0.02667845786373
  C   -2.44943171378231      1.15731305078629      0.42228808523070
  C   -2.31610243660668     -1.10479828154388     -0.44139272329564
  C   -3.83691768957828      1.06939591532261      0.42485050823383
  H   -1.94258521004903      2.05640118270916      0.75340162515782
  C   -3.70493951585630     -1.18143249240328     -0.43866861908693
  H   -1.71638109363604     -1.94467074422955     -0.77229027061036
  C   -4.46758394464490     -0.09785803403733     -0.00528253765866
  H   -4.42854163084475      1.90849479754146      0.77235630115983
  H   -4.19369481670165     -2.08965166270296     -0.77227490894037
  H   -5.54951942975455     -0.16346430000846     -0.00065238137472
  N   0.50403705678179      1.19664785228288     -0.30474944371470
  O   0.45495384176898     -0.98658919466790      0.29639776594763
