24
Coordinates from ORCA-job mp2_opt
  C   1.77419376631794     -0.65135426571236      0.00000057358365
  C   1.80022808483030      0.74676492332063     -0.00002643021095
  C   3.02197529771862      1.42291044435293     -0.00001262816728
  C   4.17388516778833      0.64585646348980      0.00000889125927
  C   4.11868262012981     -0.76054173436981      0.00002654608807
  C   2.90833292623274     -1.44843178757745      0.00002297327789
  H   3.05939896019850      2.50565788564423     -0.00002615231840
  H   5.14293647328361      1.13088194921125      0.00001823802020
  H   5.04436946888986     -1.32421693554801      0.00003961971581
  H   2.85490701707844     -2.52989067415715      0.00003448940623
  C   -0.23496296236876      0.13820980912226     -0.00002963199240
  C   -1.68604869259476      0.05040773953748     -0.00001485631894
  C   -2.33263225413632     -1.19087300705360     -0.00001520083393
  C   -2.43642564340138      1.23249525990650      0.00000657367323
  C   -3.72259632622268     -1.24351918473653     -0.00001329653575
  H   -1.74714605786169     -2.10222776220186     -0.00004814746678
  C   -3.82404481839464      1.16688679513328      0.00002454203064
  H   -1.91682035680950      2.18340850945856      0.00000644977559
  C   -4.47236322119233     -0.06873075984403      0.00002820519445
  H   -4.22242524528687     -2.20540389465623     -0.00000448128454
  H   -4.40408783172234      2.08271501822949      0.00005143468384
  H   -5.55535119308026     -0.11483767894236      0.00003817157302
  N   0.49549987025657      1.21832301508070     -0.00003456603344
  O   0.46720295034682     -1.04429612768770     -0.00000731711948
