24
Coordinates from ORCA-job mp2_opt
  C   1.77407487172935     -0.65085300696818      0.02260674121826
  C   1.80007828686806      0.74643326333463     -0.02647004369786
  C   3.02181461706354      1.42205406809198     -0.05330766002075
  C   4.17377004131256      0.64547409683570     -0.02794370329490
  C   4.11861457251012     -0.76000014911882      0.02287157386167
  C   2.90828146629583     -1.44742107789210      0.04928209502935
  H   3.05921550679756      2.50410139360480     -0.09223192393951
  H   5.14279071095587      1.13018439039544     -0.04728693760499
  H   5.04433100906476     -1.32332641201915      0.04152303265469
  H   2.85492747888037     -2.52817895123457      0.08827457131598
  C   -0.23501563455621      0.13838916452312     -0.00038398555432
  C   -1.68606720786869      0.05042102677178      0.00131920086257
  C   -2.33231043688452     -1.18966623165394     -0.05645509353554
  C   -2.43653877855324      1.23122217460479      0.05433549121516
  C   -3.72224729814875     -1.24256242605375     -0.05941810832079
  H   -1.74646330839223     -2.09979757534643     -0.09940537042704
  C   -3.82415706239160      1.16549972631761      0.05076487215296
  H   -1.91705996950503      2.18121514458850      0.09783466386015
  C   -4.47213761248619     -0.06898749374241     -0.00593864927535
  H   -4.22192589378877     -2.20343996262146     -0.10497931698462
  H   -4.40445271991979      2.08018589658600      0.09292098801565
  H   -5.55511641232542     -0.11524056677665     -0.00836344850103
  N   0.49531488729658      1.21782436619455     -0.04102078273218
  O   0.46705588604584     -1.04354485842143      0.03953579370244
