24
Coordinates from ORCA-job mp2_opt
  C   1.76363805338775     -0.61441755147914      0.20369103218822
  C   1.80805916208757      0.72198971978263     -0.20496137214284
  C   3.03790091428752      1.34780074082071     -0.41637131872251
  C   4.17987512359325      0.58699647600159     -0.19778148966285
  C   4.10684222360644     -0.75562530589073      0.21883287170437
  C   2.88803856413186     -1.39309530950191      0.43200321161874
  H   3.08895626883957      2.38139489396075     -0.73664342486226
  H   5.15500915996410      1.03455005146611     -0.35027334952830
  H   5.02534636093734     -1.30868686272716      0.37764960402092
  H   2.82071831121894     -2.42525430334735      0.75193660096943
  C   -0.23368475886261      0.17541503389733     -0.00647111283779
  C   -1.68771562188956      0.08202443684278     -0.03198214346981
  C   -2.45318459654788      1.13745378576164      0.47381982420480
  C   -2.31237975831665     -1.07888752962937     -0.49921572818822
  C   -3.84042315179262      1.04173148670137      0.47941116149898
  H   -1.95026505884069      2.02248694580730      0.84641102359732
  C   -3.70077182084817     -1.16347470652204     -0.49393572365862
  H   -1.70965440563783     -1.89865715989911     -0.87270308696880
  C   -4.46674662966152     -0.10657573349378     -0.00415304291755
  H   -4.43476056672028      1.85917230109023      0.87109323101752
  H   -4.18637753660907     -2.05696450079608     -0.86929162975579
  H   -5.54826232938458     -0.17846453190241      0.00288669479969
  N   0.50773216253232      1.19271993196489     -0.34147436794574
  O   0.45123093052482     -0.97046530890827      0.32774953504109
