24
Coordinates from ORCA-job mp2_opt
  C   1.76278876889690     -0.61919211815560     -0.20220643609848
  C   1.81785355297843      0.71545530769683      0.20840082597647
  C   3.05143488447533      1.33538382471893      0.41219846782990
  C   4.18818480867486      0.56798428495266      0.18930941002092
  C   4.10539751882874     -0.77495537878197     -0.22418141484014
  C   2.88216237800949     -1.40522141935184     -0.43209734111715
  H   3.10926455640686      2.36930430213211      0.73024092013785
  H   5.16643931653980      1.01052841693395      0.33632116894024
  H   5.01987669748516     -1.33411861678704     -0.38490843110301
  H   2.80746765441938     -2.43773739245959     -0.74918575622517
  C   -0.22900729681088      0.18305858597993      0.02398783491073
  C   -1.69357796964819      0.09938040055557      0.01806429600292
  C   -2.41600639768963      0.53675484576383     -1.09445848809131
  C   -2.36158885103983     -0.44830507909392      1.11609749230120
  C   -3.80448334269928      0.43867201982955     -1.10029366154655
  H   -1.88803999674904      0.95855609934498     -1.94250476127708
  C   -3.75001870324379     -0.54354633789104      1.10458473049538
  H   -1.79230208407783     -0.78827846780356      1.97420958369076
  C   -4.47217860540016     -0.10108482936433     -0.00245563679393
  H   -4.36512335821741      0.78200577354554     -1.96199893677498
  H   -4.26822070738648     -0.96229331917995      1.95955845299118
  H   -5.55351009889289     -0.17511198033102     -0.00870598046714
  N   0.51895679720551      1.19641465594411      0.34768345324385
  O   0.44693447793496     -0.96644757819814     -0.32109379220646
