24
Coordinates from ORCA-job mp2_opt
  C   1.77345219584203     -0.59053783443128      0.27445033055999
  C   1.80755514976768      0.68744079347634     -0.28993967807088
  C   3.03098793823183      1.29381159245660     -0.57859750678738
  C   4.17945295732477      0.57251510141455     -0.27637281522595
  C   4.11792161938852     -0.71256618512447      0.29471802564579
  C   2.90493514270893     -1.32922115873942      0.58684748923685
  H   3.07254052489346      2.28347982548994     -1.01705939207774
  H   5.15068791733817      1.00646291336913     -0.48360001315608
  H   5.04131297413271     -1.23659152054411      0.51270266785892
  H   2.84675082127589     -2.31728558079298      1.02547054312701
  C   -0.23019271775001      0.15785778000060     -0.01936574013037
  C   -1.69294848495113      0.05638825628713     -0.00367913999835
  C   -2.34696415964870     -0.69731740943610     -0.98167218231226
  C   -2.43213759075186      0.75193580329426      0.95573121551166
  C   -3.73678644529573     -0.76850044129498     -0.98565671019525
  H   -1.76542110380376     -1.22125627155388     -1.73228473628084
  C   -3.82187759775364      0.67505310786623      0.94768015999344
  H   -1.91486342152119      1.34913346550553      1.69835267982530
  C   -4.47499255923385     -0.08487915499465     -0.02100167392321
  H   -4.24371814776563     -1.35157962465888     -1.74588430841339
  H   -4.39524986947578      1.21179047381504      1.69471382279603
  H   -5.55733779875605     -0.14128844613837     -0.02654780384713
  N   0.50152656506811      1.13334264318407     -0.47075752525342
  O   0.46323909073522     -0.93746312845028      0.44658329111725
