24
Coordinates from ORCA-job mp2_opt
  C   1.77505559337285     -0.62853799819405      0.16231083545602
  C   1.79598574579754      0.73275306325142     -0.15699243384974
  C   3.01438291969336      1.38769549921977     -0.34605049418190
  C   4.16929868955122      0.62945372473847     -0.19798250515032
  C   4.11993496653978     -0.73867372414501      0.12934341467009
  C   2.91277901065429     -1.40548508161713      0.31849348570255
  H   3.04703820051077      2.44089053862279     -0.59766631098440
  H   5.13594773500100      1.09948443940370     -0.33620188468083
  H   5.04765496809508     -1.28874680907574      0.23636592815845
  H   2.86394421301318     -2.45737272584552      0.57034007073409
  C   -0.23521486204942      0.14652696435396      0.03761456466781
  C   -1.68680300671595      0.04536726788086      0.03842932275009
  C   -2.31716444346889     -1.13697170803506     -0.36417462127976
  C   -2.44869319598263      1.17012547824422      0.37244381672199
  C   -3.70619960430882     -1.19562877980712     -0.40848268893933
  H   -1.71812863802008     -1.99774077339346     -0.63736170465815
  C   -3.83613353513983      1.10003926089776      0.32690208847720
  H   -1.94061819965123      2.08227729416268      0.66310243560058
  C   -4.46832231276749     -0.08099575296939     -0.06199927609481
  H   -4.19538146458465     -2.11093578302423     -0.72148145635909
  H   -4.42731831825093      1.96831957809228      0.59430715701419
  H   -5.55051897763178     -0.13158434965247     -0.09677009719881
  N   0.48867386375355      1.19452424310284     -0.23810174330757
  O   0.46943765258910     -1.00896186621158      0.28540009673164
