20
Coordinates from ORCA-job opt
  C   -2.89222757392057      0.43151878861490     -0.43431359331564
  C   -0.92664655906292      1.49704953273859      0.07419575769431
  C   -1.61749205387670      2.59028414405633      0.60786912156876
  C   -3.00788990296140      2.56759010058756      0.63404740581876
  C   -3.66078894563613      1.45737181600651      0.11191516248854
  H   -3.37075978860447     -0.44026245271468     -0.87060566924911
  H   -1.06829887465722      3.44562725209257      0.98366311090573
  H   -3.56535352888915      3.40182991105880      1.04429222752845
  H   -4.74021195805136      1.36932116704557      0.08779264288653
  C   0.54653518704882      1.45430075978581      0.06132738268779
  C   1.29628236366056      1.94658290178729      1.13463980266411
  H   0.79192812820213      2.32954142491623      2.01806005528849
  C   1.23766865871595      0.89274421261632     -1.01393041467669
  H   0.68320622972439      0.47707018833071     -1.84739519268789
  C   3.27654462684327      1.42648233506959      0.12599576363982
  H   4.36097778907126      1.44062590150952      0.17638010715764
  N   2.63323056873739      1.94324395382668      1.18082163873589
  N   -1.55592223073371      0.43537762552614     -0.46051734434576
  C   2.62522579852875      0.88397529704392     -0.97998717327550
  H   3.20099206586112      0.46572514010161     -1.79724879151421
