20
Coordinates from ORCA-job mp2_opt
  C   2.69896269576708     -1.14483199480452      0.39208490657053
  C   0.74681157372715      0.00204925846686      0.01513272701662
  C   1.45129046610148      1.13657785980281     -0.40061635626442
  C   2.84061216218340      1.10878015674013     -0.39499650665460
  C   3.48082362124939     -0.05519319941842      0.01590846111070
  H   3.16436677385353     -2.07373597384145      0.70747805513904
  H   0.91379467012687      2.01415870394959     -0.73994831475784
  H   3.41009469276551      1.97350765723169     -0.71560568347919
  H   4.56142892463329     -0.12597262241096      0.03746923430733
  C   -0.72700908826077     -0.01502362077428      0.01693754769767
  C   -1.46482316080369      1.10692929093138      0.40875471795987
  H   -0.95129823292265      1.99700007093747      0.76335818458864
  C   -1.43110854393543     -1.15063799469519     -0.38759184102784
  H   -0.88604082136169     -2.03999864417881     -0.68234175248065
  C   -3.45657922301667      0.06866056282885      0.00277849102742
  H   -4.54010538239190      0.13508244143223      0.00110176846121
  N   -2.80126333796730      1.16389653260610      0.40934945450926
  N   1.36151840138836     -1.13318547095804      0.39347260919787
  C   -2.81829705217199     -1.10438799508433     -0.39577243078751
  H   -3.40350613896397     -1.96052501876111     -0.70978827213414
