20
Coordinates from ORCA-job opt
  C   -2.89236430083290      0.44152742862999     -0.45924207097431
  C   -0.92652120532187      1.49607256530023      0.07655486781601
  C   -1.61845654959018      2.57827342420279      0.63078838527211
  C   -3.00855756846452      2.55603391829066      0.65045091765553
  C   -3.66154280214381      1.45825680824702      0.10228784483042
  H   -3.36944491788726     -0.42196581989375     -0.91319546128154
  H   -1.07157605847309      3.42662394896868      1.02496447120365
  H   -3.56682535422679      3.38209830840846      1.07589101586929
  H   -4.74163714482075      1.37825071338886      0.08134762617871
  C   0.54690392134394      1.45521106265888      0.06254835224158
  C   1.29948820299395      1.97162200240941      1.12269873795646
  H   0.79856003414700      2.37583926413418      1.99849160679179
  C   1.23638502997754      0.87420425630988     -1.00358438741344
  H   0.67995365609272      0.44181349887360     -1.82707412653195
  C   3.27780551210110      1.43331381821795      0.11947652748283
  H   4.36234377209771      1.44970342678983      0.16676332627915
  N   2.63651328438350      1.97136765098379      1.16485515362295
  N   -1.55583983021188      0.44527720875689     -0.47947097457179
  C   2.62399643715298      0.86796431612071     -0.97343123815593
  H   3.19781388168261      0.43451319920192     -1.78412057427154
