20
Coordinates from ORCA-job opt
  C   -2.86476322465642      0.92530212813619      1.29070924128250
  C   -0.93122621559535      1.43840391355796      0.16162690982902
  C   -1.65119289649906      2.12109485310794     -0.82454727997165
  C   -3.03353369838034      2.21244516225222     -0.71537813530739
  C   -3.65690957203634      1.60548836157562      0.36897540206812
  H   -3.31527980020975      0.43248981267216      2.14710061545419
  H   -1.13704538995226      2.55748205346921     -1.67240109721788
  H   -3.61066344965408      2.74214806290751     -1.46471404486597
  H   -4.72628153418171      1.68155508753651      0.52403989132622
  C   0.53952028534215      1.33506274563031      0.10463897783675
  C   1.18897767297234      0.23340001962743      0.67663756567575
  H   0.59801013216893     -0.53276417410250      1.16678643681983
  C   1.33227917878219      2.31015115552329     -0.50415422586376
  H   0.88443604460657      3.20072377636141     -0.93193511537418
  C   3.25383964903198      1.00215431688604      0.06910994888395
  H   4.32744033597728      0.84044914541023      0.07283489582122
  N   2.51391631077676      0.05633532959626      0.66398808720769
  N   -1.53416760481614      0.83595486681112      1.20233908594889
  C   2.71083533986792      2.13896417017383     -0.52213112927162
  H   3.35880843645533      2.87915821286727     -0.97652403028169
