20
Coordinates from ORCA-job mp2_opt
  C   2.71331812312892     -0.94255063012473      0.74734454419769
  C   0.74981513739971     -0.00640715508653      0.02505708711521
  C   1.43567508083089      0.93453710429948     -0.74659778933569
  C   2.82611684677471      0.92252947489686     -0.74605422250657
  C   3.48027084865154     -0.03542964148854      0.02069386148407
  H   3.19088315564985     -1.70780624709537      1.35165624278532
  H   0.87888820658595      1.65808332072771     -1.33108180716544
  H   3.38461672836081      1.64142497224550     -1.33456175719728
  H   4.56161115308407     -0.08568883267507      0.05540267199717
  C   -0.73001013144858     -0.03231342504764      0.02289484227616
  C   -1.45957704867401      0.90847389947705      0.75433691938871
  H   -0.93528642202781      1.64319451292926      1.36016164176633
  C   -1.43758802460310     -0.95416210653266     -0.74774899493922
  H   -0.90508801356725     -1.69690974892799     -1.33225248488795
  C   -3.45709532316139      0.07016818086169      0.03384742708594
  H   -4.54034470713821      0.13529547505968      0.05977100197302
  N   -2.79637874507401      0.97009422197961      0.77421241959050
  N   1.37401040537725     -0.94583325893019      0.75627867163129
  C   -2.82623860762308     -0.90316327614539     -0.73747548032659
  H   -3.41525466252626     -1.60192184042271     -1.31964979493268
