20
Coordinates from ORCA-job opt
  C   -2.88079634040587      0.66659120203086     -0.78315380160968
  C   -0.92630595824482      1.53313324273180      0.07461044961772
  C   -1.64691288975271      2.38492458047669      0.91973743200440
  C   -3.03578492783676      2.35675061101265      0.89282301050407
  C   -3.67270870873097      1.47937497790794      0.02332121313196
  H   -3.33596537883423     -0.03367828388127     -1.47716970340386
  H   -1.13945996313337      3.06341609343454      1.59201695368877
  H   -3.60785438478600      3.01038049722405      1.54131036092993
  H   -4.75284669109937      1.42230130957682     -0.03254251333845
  C   0.55454842350448      1.50768817531234      0.04814343197543
  C   1.33910194803324      2.33174231598584      0.86525794907058
  H   0.88045053368310      3.02923897422903      1.55789356774199
  C   1.22747491488826      0.63800144220816     -0.81548710223888
  H   0.65338303516171     -0.01385464234376     -1.46190268125653
  C   3.29678638267290      1.49585744757211      0.03411502160976
  H   4.38205581102134      1.51642343355347      0.05355205921649
  N   2.67690658531379      2.33781577927993      0.87017452781159
  N   -1.54543874342108      0.68465916946515     -0.76621416325388
  C   2.61505995010240      0.63382482476133     -0.82080381611666
  H   3.16530540186397     -0.02859015053770     -1.47868219608477
