20
Coordinates from ORCA-job opt
  C   -2.91381322748168      0.44535859208257      0.76843214101100
  C   -0.93267597366087      1.42129190646256      0.13876682834682
  C   -1.60606259358807      2.52843134056840     -0.38778441540663
  C   -2.99360904960943      2.56706989144794     -0.33004219956502
  C   -3.66517347628230      1.50069794370095      0.25784037204611
  H   -3.40185045341357     -0.40021906194067      1.24375758533949
  H   -1.04595972105363      3.35457672599089     -0.80966359889793
  H   -3.53787754925182      3.41885165001258     -0.72172840434622
  H   -4.74365356185888      1.50577885291103      0.35935619676031
  C   0.53943967864313      1.34145119090912      0.10790411223704
  C   1.23032408319607      0.72198065045286      1.15673759670028
  H   0.66984737960158      0.30007879633789      1.98449358629471
  C   1.29108840303618      1.87425184377333     -0.94102098638223
  H   0.80037218119636      2.33801140539947     -1.79037964201854
  C   3.26288099376910      1.13361154491680      0.19695206265421
  H   4.34194418224732      1.03220072365296      0.26113965648598
  N   2.56165914412477      0.61570671906751      1.21492237049334
  N   -1.57854575664502      0.39226233419415      0.71619329757256
  C   2.67550002393242      1.76712983513981     -0.89433015111035
  H   3.29316429309833      2.15747611491985     -1.69454640821492
