20
Coordinates from ORCA-job mp2_opt
  C   2.67332982680633     -1.07849272485960     -0.58791140050573
  C   0.74710269674408      0.03607481412838     -0.03588977393969
  C   1.47170082357413      1.07343289589563      0.55800763905095
  C   2.86039925248049      1.01607177183290      0.55213701113238
  C   3.47619662712636     -0.08243802816343     -0.03782045810714
  H   3.11994601144604     -1.95471617746695     -1.04797092368233
  H   0.94554992128999      1.90054630689867      1.02111153305078
  H   3.44773244531716      1.80466504759707      1.00836881772157
  H   4.55500418175632     -0.17487496330621     -0.06560470269138
  C   -0.72866272323228      0.04290601107600     -0.00892965065193
  C   -1.42441510960023     -1.02824080818291      0.56088460918395
  H   -0.86882713160367     -1.85523061546026      0.99341868816290
  C   -1.47079449593621      1.07466046846907     -0.58309131644884
  H   -0.96741688938738      1.90899564478173     -1.06124085539408
  C   -3.45258696348941     -0.09977798470131      0.06981486564196
  H   -4.53363990796019     -0.18466103300711      0.11995416417536
  N   -2.75765710016439     -1.10733355555016      0.61688312160086
  N   1.33516643264887     -1.03903772860107     -0.58895978135380
  C   -2.85840128703580      1.00130111868917     -0.54044408193377
  H   -3.47328361078022      1.77698153993039     -0.98114050501203
