20
Coordinates from ORCA-job mp2_opt
  C   2.68345180361272     -1.21224453979184      0.17392980504618
  C   0.74872451681157      0.01712290204379     -0.02842013003609
  C   1.48328226999034      1.19739843808996     -0.18950749641730
  C   2.87110477293543      1.14479778472732     -0.15505245525977
  C   3.48971535341431     -0.08554697777464      0.03450192602583
  H   3.12655658242528     -2.19312371020969      0.31721277442283
  H   0.98123666826595      2.13995042803731     -0.36525695290218
  H   3.45653989803225      2.04828910290809     -0.28110131480433
  H   4.56846655610967     -0.17633937362974      0.06879250739610
  C   -0.72964763049986      0.00930080496372     -0.02444917640072
  C   -1.48049987831630      1.17478524155574      0.17287658374235
  H   -0.98829180025860      2.12622553142240      0.34784786417102
  C   -1.43194321090606     -1.18989974746807     -0.17564261772982
  H   -0.88008570778818     -2.11247675077501     -0.30724395900471
  C   -3.46766363723939      0.05873653225854      0.01867619537383
  H   -4.55179631859252      0.11398556338491      0.03009044605989
  N   -2.81732027277544      1.21658900037305      0.19104586700672
  N   1.34832528726356     -1.17443975397969      0.14820113780937
  C   -2.81893931736291     -1.16120339325624     -0.15774650052063
  H   -3.39582293512181     -2.07040308287990     -0.27981750397855
