20
Coordinates from ORCA-job opt
  C   -2.71940050211707      2.05893990569598      1.42091726764662
  C   -0.92461479077846      1.51991943014641      0.11113035917328
  C   -1.76219870195280      1.20674307142112     -0.96455411121591
  C   -3.14300533229902      1.30906117000714     -0.81009842141727
  C   -3.63320894872546      1.73031360649606      0.41907126882906
  H   -3.07327676410292      2.41998403302407      2.38224595052075
  H   -1.32835380789104      0.89316534637858     -1.90733539199416
  H   -3.80956513420797      1.07645639459291     -1.63261832129601
  H   -4.67572004258568      1.90884669179439      0.65397405275466
  C   0.54060206023310      1.38939741189419      0.00956593460011
  C   1.12719616521390      0.21846762482071     -0.47900498863682
  H   0.49981739211173     -0.62900775682905     -0.74226530355534
  C   1.38487708032475      2.41478446920675      0.43767052680422
  H   0.96088228780407      3.32148511234169      0.85449720516166
  C   3.23817884757025      1.04464328634270     -0.21677240767875
  H   4.30558346084179      0.88282099402779     -0.33182073692490
  N   2.44704687938549      0.03414035503127     -0.59916953212676
  N   -1.39355412790201      1.96408405347135      1.29016266738416
  C   2.75656887324095      2.23915005173024      0.31544877767247
  H   3.44914610583640      3.01260474840568      0.62595420429891
