20
Coordinates from ORCA-job opt
  C   -2.92025395283564      0.41177398489847      0.70417900263365
  C   -0.93460486061068      1.40418363566800      0.11766928529108
  C   -1.60042206518296      2.53711431323383     -0.35980775475517
  C   -2.98709558506230      2.58344950691476     -0.29382559122237
  C   -3.66531392697352      1.49596747373877      0.24723533880306
  H   -3.41226249791495     -0.44939815054488      1.14621815674066
  H   -1.03268910829029      3.37640349966003     -0.74449547631997
  H   -3.52618556532362      3.46021955706403     -0.63426091468828
  H   -4.73452165637217      1.54319386739438      0.41552912851452
  C   0.53776022894831      1.33260907588007      0.09721698847473
  C   1.22780016075984      0.77097055212124      1.17794573892161
  H   0.66732127874344      0.39141648798548      2.02627493163601
  C   1.28885201322947      1.82763978960902     -0.96997263323901
  H   0.79537493846654      2.25141096760586     -1.83866818457763
  C   3.26089012796374      1.15460217668898      0.20884312999056
  H   4.34039216577916      1.06452648778577      0.28187041848430
  N   2.55959727130311      0.67970941266922      1.24767979930748
  N   -1.58476273909116      0.35160520238089      0.64526607030219
  C   2.67403002730466      1.73422254752593     -0.91235327478725
  H   3.29309174515903      2.09437961172017     -1.72554615951014
