20
Coordinates from ORCA-job opt
  C   -2.88714387855727      0.35990727943450     -0.19986793511263
  C   -0.92749850711754      1.48471559434046      0.12303385963928
  C   -1.61873758413762      2.65474208583344      0.45312744437408
  C   -3.01377193183968      2.65544749612436      0.45591252699664
  C   -3.66402333211187      1.47230879817561      0.13286048648930
  H   -3.37141109869443     -0.57077474866020     -0.48164667945260
  H   -1.06212260315716      3.55418475560859      0.69150666071849
  H   -3.56384729496706      3.56023807495246      0.68770053552080
  H   -4.72596605533555      1.32499715675396     -0.02514942812581
  C   0.54789496496893      1.43799904138805      0.09854600764098
  C   1.29975852451143      1.72393078881366      1.24070309991881
  H   0.79382115784391      1.93891604982507      2.17754364017696
  C   1.23194091543646      1.06094404030162     -1.05763861539123
  H   0.67669019949431      0.79766819148143     -1.95124811704684
  C   3.27512069024486      1.36865597483442      0.15390546882098
  H   4.35965594870317      1.36271725874647      0.20414637099947
  N   2.63718052106311      1.69719118605745      1.28437529229691
  N   -1.55225728737933      0.34394303310101     -0.21480809503242
  C   2.61993019572657      1.03297261532955     -1.02922658055448
  H   3.19178745530477      0.75529732755808     -1.90677594287669
