20
Coordinates from ORCA-job opt
  C   -2.88868929642996      0.50155159985027     -0.57842536830520
  C   -0.92594538769949      1.49037073696548      0.09984916115743
  C   -1.62909858172412      2.50615289733573      0.75622440107842
  C   -3.01805280457892      2.49297002667962      0.73396744549321
  C   -3.66611810145492      1.46974309156243      0.05151574100985
  H   -3.35602084953475     -0.31302611467978     -1.12366774004388
  H   -1.09896724361861      3.31019359524170      1.25100036331662
  H   -3.58186159404426      3.27484056322421      1.22985855439191
  H   -4.74743701394660      1.42861338738141      0.00253993965606
  C   0.55009211636255      1.46146636761650      0.07497910914042
  C   1.32088594540993      2.10013143192985      1.05349431686464
  H   0.84239392128976      2.61493757989884      1.88153602301641
  C   1.22854012947617      0.78122442838823     -0.93953943009505
  H   0.66040461729524      0.26496798630415     -1.70403143648990
  C   3.28629273165969      1.46621484825755      0.07880515259221
  H   4.37132843675034      1.49245096881975      0.10550310239695
  N   2.65834204527762      2.11367805576622      1.06860974027808
  N   -1.55216602061773      0.49991679879263     -0.56165565902737
  C   2.61617544503401      0.78598468048711     -0.93528144335963
  H   3.17690350509403      0.27361907017808     -1.70828197307117
