20
Coordinates from ORCA-job mp2_opt
  C   2.70867422405569     -1.10683651205386      0.46845803362135
  C   0.74680725601167      0.00162976951607      0.03954553467458
  C   1.43732402870829      1.10441999193898     -0.47249471573491
  C   2.82693374109389      1.08308413710437     -0.48657523193132
  C   3.47862315194755     -0.04492849078780     -0.00024498648537
  H   3.18414493357371     -2.00773311313639      0.84424649538996
  H   0.88632287152901      1.95247035094557     -0.86230978944536
  H   3.38740146793608      1.92339961617835     -0.87982153171958
  H   4.55976238738080     -0.10995783701507      0.00884417618608
  C   -0.72722191803319     -0.02443676220447      0.04095032090106
  C   -1.46706878106016      1.07102043440016      0.49668115478829
  H   -0.95315203813276      1.93491158103710      0.91122402312180
  C   -1.42595433018418     -1.12286705581503     -0.46185006890386
  H   -0.87943757525487     -1.98916674112658     -0.81746941872126
  C   -3.45444968012658      0.06822468450249     -0.00654971767646
  H   -4.53783969436968      0.13609566185345     -0.01612826128430
  N   -2.80356248557092      1.13073739681295      0.48520164964143
  N   1.37078112177664     -1.10201049068082      0.48890635191758
  C   -2.81320023309732     -1.07327340260000     -0.48411825432802
  H   -3.39562644818366     -1.90114921886945     -0.87066076401168
