20
Coordinates from ORCA-job mp2_opt
  C   2.67610792960135     -1.13718308121859      0.45264540073858
  C   0.74575223911522      0.02649881992859      0.02445060367666
  C   1.47004457761972      1.13161025862784     -0.43391468019903
  C   2.85859093006927      1.08049052768828     -0.42463789816379
  C   3.47719339952282     -0.07800750191440      0.03290678785567
  H   3.12468056204093     -2.06019358646172      0.80721992428886
  H   0.94608859569910      2.00465117483106     -0.80575769928144
  H   3.44414864965953      1.92129639149768     -0.77828125236338
  H   4.55634420028240     -0.16744037063106      0.05791738695669
  C   -0.72820624390897      0.03373539249724      0.00996139748530
  C   -1.43173011613090     -1.09308305166719     -0.43065821465255
  H   -0.87985932053215     -1.96681477069940     -0.76269278321063
  C   -1.46557779396801      1.13353548885016      0.45063287036887
  H   -0.96029903585539      2.01547804672243      0.83128109936728
  C   -3.45449357922726     -0.09961431599951     -0.05482304575171
  H   -4.53608326006092     -0.18399632273259     -0.09322321579066
  N   -2.76530113821136     -1.16981347505926     -0.47572072039346
  N   1.33862712806529     -1.10310071534482      0.45057934208680
  C   -2.85312147299920      1.06432692778170      0.41599695365408
  H   -3.46275225078149      1.89190116330358      0.75860574332785
