20
Coordinates from ORCA-job mp2_opt
  C   2.71840442207990     -0.97434257853128     -0.69630085979721
  C   0.74935375596157     -0.00430404495478     -0.03592851711497
  C   1.42954472142332      0.97193858168122      0.69627205887327
  C   2.81986144615092      0.96093497176990      0.70603369057514
  C   3.47977588987539     -0.03187444105699     -0.00972128613490
  H   3.20065239500718     -1.76822618694938     -1.25847403987478
  H   0.86831861092193      1.72037229126013      1.24404009550149
  H   3.37388631017054      1.70630409646190      1.26507578020059
  H   4.56135784910201     -0.08313452685448     -0.03402794724702
  C   -0.72944194113609     -0.03559623945422     -0.03496213959220
  C   -1.46366130286297      0.94119297560577     -0.71277594122152
  H   -0.94330428538466      1.70505763233844     -1.28517509158684
  C   -1.43199851407398     -0.99419090638850      0.69465975901313
  H   -0.89482949717781     -1.76429325277674      1.23791918528694
  C   -3.45635232378570      0.06809607645814     -0.02131221863465
  H   -4.53974020895834      0.13463551199633     -0.03597369286449
  N   -2.80059181093276      1.00321195432678     -0.72140500989814
  N   1.37929863124483     -0.97927100662351     -0.71411763857777
  C   -2.82040708296435     -0.94201966605355      0.69699388642884
  H   -3.40582406466090     -1.66733324225520      1.24957592666509
