20
Coordinates from ORCA-job opt
  C   -2.88842542199313      0.38284886130640     -0.28613000843068
  C   -0.92709703464626      1.49304588495784      0.09190464502312
  C   -1.61734729266949      2.63869101455018      0.50113765887297
  C   -3.01074328620755      2.62715277026879      0.53012535410033
  C   -3.66134742057531      1.46367160882924      0.14126062256903
  H   -3.37177950552030     -0.52920468019212     -0.62429640358047
  H   -1.06163570473029      3.52499716258070      0.78587230718427
  H   -3.56372230738117      3.50796358739974      0.83559259647643
  H   -4.73255669665763      1.33277064134575      0.04498888729120
  C   0.54680094380095      1.44600418318277      0.07480502653372
  C   1.29235432111216      1.80467528280893      1.20123791197666
  H   0.78133596863795      2.07580409529954      2.12111893862373
  C   1.23780963365305      0.99969551892777     -1.05238228511873
  H   0.68652060741664      0.67999454630399     -1.92965154710105
  C   3.27402691622665      1.38904125601866      0.14832818546306
  H   4.35829035337591      1.39011500735194      0.20402185490311
  N   2.62936848392068      1.78510632175543      1.25321813097541
  N   -1.55342878690258      0.37693063669075     -0.31915706295709
  C   2.62549261548032      0.97803293765453     -1.01467113848795
  H   3.20308461365939      0.64866536295918     -1.87032167431707
