20
Coordinates from ORCA-job mp2_opt
  C   2.70519809322563     -0.90674349329204     -0.79995743923994
  C   0.75012061341580     -0.00916525905580     -0.00978803554294
  C   1.44436727395321      0.89384845801490      0.79842336550572
  C   2.83478558591102      0.88027546479872      0.78454837827166
  C   3.48031509925174     -0.03949861462107     -0.03448075854469
  H   3.17589748409517     -1.63980053527913     -1.44800530452423
  H   0.89416445646511      1.59032019087178      1.42078076793373
  H   3.39981982901436      1.57036908230393      1.40067334535030
  H   4.56121442664859     -0.08920494338980     -0.08164838123523
  C   -0.73044025988913     -0.02641891443556     -0.00586759899897
  C   -1.45360424754043      0.86968184850279     -0.79711622986985
  H   -0.92394334740701      1.56948711624757     -1.43839907821254
  C   -1.44465175993101     -0.90721849800319      0.80525685601188
  H   -0.91792817056382     -1.61757525610515      1.43373147825359
  C   -3.45735479972795      0.07037228537336     -0.04981135014338
  H   -4.54033809992149      0.13241636694906     -0.08996633861077
  N   -2.79009567180951      0.92906000626326     -0.83217122845550
  N   1.36575014878749     -0.90757322049782     -0.79733945215521
  C   -2.83340848638347     -0.85864839774686      0.77928020023796
  H   -3.42732216759430     -1.52712268689895      1.39127780396841
