20
Coordinates from ORCA-job opt
  C   -2.88156650229945      0.60099787137550     -0.71237852957809
  C   -0.92625480461171      1.50771525732813      0.09908132210078
  C   -1.64467747655287      2.42161521838176      0.87822596738127
  C   -3.03330548076969      2.40770596889617      0.83847504439121
  C   -3.67121837393749      1.48109996158258      0.02225197037012
  H   -3.33820525171403     -0.14237673244674     -1.35907892489255
  H   -1.13310554411044      3.15072599683333      1.49231196392624
  H   -3.60413993698799      3.11500272930188      1.42917253389137
  H   -4.75116901267426      1.44579859782737     -0.05333803326441
  C   0.55387046274549      1.48566310656998      0.06824644159758
  C   1.33755610910058      2.25306526847446      0.93911411258699
  H   0.87714472152023      2.89183015564364      1.68560964123928
  C   1.22658574296697      0.68207672600354     -0.85744766906284
  H   0.65178993647420      0.07358518502534     -1.54445854985678
  C   3.29500888199825      1.49074619908161      0.04102144757246
  H   4.38025437967403      1.51751282951222      0.05592537512112
  N   2.67511840231686      2.26740413507775      0.93823005047086
  N   -1.54627714074437      0.60431596774004     -0.68193216740717
  C   2.61392886594222      0.68597782763664     -0.86835309270835
  H   3.16566302166348      0.07553573015480     -1.57368090387910
