20
Coordinates from ORCA-job opt
  C   -2.85349896425643      1.09535074554323      1.39113963729512
  C   -0.92563763180003      1.49479180187276      0.21017602893383
  C   -1.64688863270796      2.04895041253416     -0.85100137877869
  C   -3.03130373484677      2.11784900598782     -0.76276745758765
  C   -3.65198449216900      1.63347706438280      0.38470910709628
  H   -3.30058086348162      0.69083713710489      2.29423644802829
  H   -1.12677958621522      2.38610371897549     -1.74027060833170
  H   -3.61702477485703      2.51309575313415     -1.58496087219852
  H   -4.73057643077700      1.53596552537345      0.41842011125089
  C   0.54048032453772      1.36341575141430      0.12886678062300
  C   1.16332967221505      0.18069534782147      0.54344677814225
  H   0.55574695686487     -0.63600592176641      0.92020801226873
  C   1.34697921094544      2.38333515296052     -0.37778052406358
  H   0.90702198933092      3.32351721144083     -0.69472054533203
  C   3.23971986261856      0.96942810585875      0.00950056919400
  H   4.30903260944570      0.78368731595957     -0.01911816183741
  N   2.48255059968889     -0.02751067305481      0.48849228780724
  N   -1.51865985465531      1.02334822550997      1.32130944517373
  C   2.72082801839433      2.18223313663664     -0.43479795367954
  H   3.38424272172488      2.95343618231039     -0.80808770400423
