20
Coordinates from ORCA-job mp2_opt
  C   2.69464424571860     -1.16151517467298      0.35258097266664
  C   0.74696631982655      0.00334196106147      0.00255544561897
  C   1.45829974706905      1.15071318897922     -0.36386429178825
  C   2.84734708638355      1.11897996765425     -0.34836090065034
  C   3.48220882411741     -0.06080543675730      0.02371413239018
  H   3.15498428739151     -2.10284473147816      0.63706813191767
  H   0.92803964382566      2.04225170755531     -0.67657750919103
  H   3.42092280527159      1.99399119538440     -0.63158516591285
  H   4.56244272971106     -0.13486379984597      0.05156321155378
  C   -0.72715665217476     -0.01012459792906      0.00483513229451
  C   -1.46513666718005      1.12292191431276      0.36403669463509
  H   -0.95334928458040      2.02554843025375      0.68733557763454
  C   -1.43311300538840     -1.16162247734264     -0.34946590641595
  H   -0.88819806686038     -2.06037175823292     -0.61380918319716
  C   -3.45826119208527      0.06824930095020      0.00813924797442
  H   -4.54186024647592      0.13359374687466      0.01073138890908
  N   -2.80153278836408      1.17780727690878      0.37087192302213
  N   1.35757957799492     -1.14560181522274      0.34467573827849
  C   -2.82026892902684     -1.11777459810812     -0.35013532506743
  H   -3.40580843517381     -1.98645530034491     -0.62694631467248
