20
Coordinates from ORCA-job mp2_opt
  C   2.68787356298766     -1.19087599059349      0.26734652888814
  C   0.74773094426536      0.00874311165151     -0.01607525641134
  C   1.47167082361675      1.17626866381397     -0.28157062136526
  C   2.86006057031188      1.13466033330871     -0.25236562148911
  C   3.48572127053107     -0.07359845214807      0.03339308182515
  H   3.13889180597398     -2.15445774041756      0.48428126791023
  H   0.95602075953735      2.09485455141540     -0.53258777134080
  H   3.44043676159697      2.02657006818590     -0.45861545430152
  H   4.56515983608156     -0.15583393817815      0.06777171873919
  C   -0.72801657223423     -0.00018818054781     -0.01311808134451
  C   -1.47044346520245      1.15193842058832      0.27079429302054
  H   -0.96650999340817      2.07978717904216      0.52561214030937
  C   -1.43400864348539     -1.17905230733694     -0.26586692421782
  H   -0.88682545942976     -2.09254099366641     -0.46557919393358
  C   -3.46250967581163      0.06524046458753      0.01444531020797
  H   -4.54633186625721      0.12668005932350      0.02217226501345
  N   -2.80692564106095      1.20135437718711      0.28454193629958
  N   1.35176005613844     -1.16432880405408      0.24742655902705
  C   -2.82108360058135     -1.14181880129238     -0.25546677135713
  H   -3.40395847356991     -2.03310302086923     -0.45566540547958
