20
Coordinates from ORCA-job mp2_opt
  C   2.67667603893151     -1.02209634940413      0.68254980719586
  C   0.74848153213070      0.03400901734982      0.03335989236438
  C   1.47003238667001      1.01650229824464     -0.64977316762272
  C   2.85909362191144      0.96218314305460     -0.64083647694399
  C   3.47718150602142     -0.07824306921753      0.04421346318407
  H   3.12528505047648     -1.85253278633691      1.21917416421074
  H   0.94109601171561      1.80076075687566     -1.17942964905680
  H   3.44449764894789      1.70915259727988     -1.16468570665474
  H   4.55616622142824     -0.16569931579604      0.07962424816740
  C   -0.72965795189498      0.04078038404958      0.01037701828771
  C   -1.42619609952269     -0.97268655169871     -0.65478277443176
  H   -0.87296203499848     -1.75700428636052     -1.16383175551654
  C   -1.47041308523391      1.01664993873345      0.67592424655303
  H   -0.96585834856846      1.80673570890802      1.22278657711081
  C   -3.45358804329880     -0.09454920869869     -0.07683054564634
  H   -4.53472922124400     -0.17426399990482     -0.13291640062714
  N   -2.75987801380990     -1.04767687719001     -0.71508543347840
  N   1.33796525600746     -0.98547230483350      0.68148896133166
  C   -2.85825858630085      0.94689231177431      0.62956509024901
  H   -3.47222788936868      1.68067659317089      1.13819244132376
