20
Coordinates from ORCA-job mp2_opt
  C   2.71824016524159     -0.97477125156470      0.69667903884915
  C   0.74942559493013     -0.00445018612771      0.03598568035070
  C   1.42987029660322      0.97166952973387     -0.69613305260573
  C   2.82018806343599      0.96045011111366     -0.70568902718181
  C   3.47985449296833     -0.03243829109849      0.01018518775499
  H   3.20027800489273     -1.76871468904267      1.25894862584338
  H   0.86885614445267      1.72018693945749     -1.24400526755978
  H   3.37440876322382      1.70572187588325     -1.26466701135577
  H   4.56142670465325     -0.08383484454584      0.03462694289296
  C   -0.72937311882610     -0.03555307998047      0.03483061620824
  C   -1.46356398094893      0.94133532018261      0.71253057056088
  H   -0.94318247924168      1.70514798318229      1.28497812691695
  C   -1.43195141916143     -0.99408316418728     -0.69486195386306
  H   -0.89479289956175     -1.76425436745583     -1.23803423379247
  C   -3.45626931610418      0.06845302763633      0.02083880560552
  H   -4.53965099672542      0.13512590006067      0.03537517426022
  N   -2.80048876830284      1.00350844105305      0.72099200911003
  N   1.37913341336459     -0.97949443984022      0.71429500606882
  C   -2.82035252079334     -0.94175214944883     -0.69736983637381
  H   -3.40578414410065     -1.66700966501118     -1.25001040168940
