20
Coordinates from ORCA-job opt
  C   -2.91163540197670      0.46079898712719      0.79523878872863
  C   -0.93186128696159      1.42929825284446      0.14896901820491
  C   -1.60816871999934      2.52491632861084     -0.39785487911648
  C   -2.99619182317314      2.55962576623152     -0.34519814788442
  C   -3.66572363318624      1.50264710751075      0.26125205073014
  H   -3.39807061685421     -0.37794040830933      1.28415255180924
  H   -1.05172728412296      3.34535865862273     -0.83513665832567
  H   -3.54202138414716      3.39991084357396     -0.75890326338127
  H   -4.74652448626613      1.48658426615447      0.33180137779598
  C   0.54014675801400      1.34556405450942      0.11341168179983
  C   1.23158391227968      0.70234824576050      1.14779807703355
  H   0.67123678750282      0.26362419122764      1.96665746121708
  C   1.29190055979619      1.89341771958548     -0.92779951313586
  H   0.80288562925909      2.37424720777903     -1.76846482227521
  C   3.26376114758978      1.12439980775006      0.19114481005381
  H   4.34256617556453      1.01781099340401      0.25097394573960
  N   2.56262213071172      0.58939726885927      1.20024932651414
  N   -1.57643851151148      0.41115043362779      0.74688129994344
  C   2.67597830185835      1.78014443844165     -0.88664718319393
  H   3.29268274562278      2.18269683668855     -1.68152592225750
