20
Coordinates from ORCA-job mp2_opt
  C   2.68248732790263     -1.21986916160409      0.12256691132703
  C   0.74930170532221      0.02125595173696     -0.02999507341010
  C   1.48781015636173      1.20519145986956     -0.13783731067251
  C   2.87545222041168      1.14773246603608     -0.10535123115984
  C   3.49178790700532     -0.09063274018512      0.03088916849591
  H   3.12267812710663     -2.20713448483976      0.22514170847375
  H   0.99120965353599      2.15760160963784     -0.26808608090178
  H   3.46244404643529      2.05505042319282     -0.18990740871209
  H   4.57031759215777     -0.18511669630013      0.06188461342716
  C   -0.73039437041488      0.01296805274834     -0.02556679387382
  C   -1.48593120827102      1.18320173910690      0.12075522289513
  H   -1.00001347165436      2.14491272649548      0.24854667643248
  C   -1.43038193863015     -1.19318716031788     -0.12619260180865
  H   -0.87599003559644     -2.11862579267435     -0.22056770849349
  C   -3.47019381785690      0.05526725945908      0.01868240455178
  H   -4.55446189631031      0.10766023953997      0.03055899304733
  N   -2.82288173928527      1.22126027998657      0.13906178992107
  N   1.34775380541927     -1.17718191352842      0.09716616628016
  C   -2.81735794593263     -1.16845534739618     -0.10738301309918
  H   -3.39086711770657     -2.08425391096366     -0.18966543272035
