20
Coordinates from ORCA-job mp2_opt
  C   2.67413610314950     -1.12056612042764     -0.49607074808368
  C   0.74601594122367      0.03069972418460     -0.02937335251712
  C   1.47085874850901      1.11550710931843      0.47374885924160
  C   2.85943477612971      1.06171130906405      0.46594167805483
  C   3.47634529762703     -0.08011461484699     -0.03390576540288
  H   3.12166623583233     -2.03050155342840     -0.88417249710207
  H   0.94616580559344      1.97529300691517      0.87461824138634
  H   3.44615811190759      1.88681942503488      0.85306824630201
  H   4.55533757825297     -0.17133941537998     -0.05907340121818
  C   -0.72821181092883      0.03792319778888     -0.00800555508920
  C   -1.42855688116412     -1.07399655668001      0.47266462042673
  H   -0.87492052662877     -1.93417428083210      0.83639180361290
  C   -1.46735893846814      1.11728515215071     -0.49299505521663
  H   -0.96248112788472      1.98541244362250     -0.90484132199069
  C   -3.45336790252209     -0.10058848284226      0.05901722280131
  H   -4.53475267363434     -0.18600202551045      0.10056842550141
  N   -2.76195042514112     -1.15255202117341      0.52040440114180
  N   1.33641751467858     -1.08412421385777     -0.49550070541202
  C   -2.85492467795134      1.04592789124357     -0.45618894472003
  H   -3.46672814858035      1.85783902565624     -0.83089315171642
