20
Coordinates from ORCA-job mp2_opt
  C   2.71337485737792     -0.94244921126537     -0.74732949807480
  C   0.74982354102545     -0.00637574182816     -0.02507673357033
  C   1.43563137742360      0.93458550624490      0.74660549572025
  C   2.82607277264906      0.92262754710457      0.74608357775419
  C   3.48027749944653     -0.03530961168496     -0.02065300259538
  H   3.19097182054522     -1.70768719812215     -1.35163776380148
  H   0.87880454673891      1.65810313040425      1.33108624194134
  H   3.38454747393592      1.64153536139469      1.33459961048562
  H   4.56162141322598     -0.08552087841323     -0.05531768720509
  C   -0.73000170807114     -0.03234627834647     -0.02292880614417
  C   -1.45961641622589      0.90841551912556     -0.75435245673235
  H   -0.93536607263259      1.64317038051774     -1.36017035338044
  C   -1.43753035204205     -0.95424323169663      0.74770580187025
  H   -0.90498345541850     -1.69697219120696      1.33219003387856
  C   -3.45709016526340      0.06999831439799     -0.03386787533360
  H   -4.54034247607850      0.13507709317388     -0.05978571896879
  N   -2.79642250956366      0.96996931079167     -0.77422180087855
  N   1.37406677845563     -0.94576683457726     -0.75630011095196
  C   -2.82618228140869     -0.90331511001258      0.73743712396418
  H   -3.41517064411980     -1.60210987600148      1.31959592202254
