20
Coordinates from ORCA-job mp2_opt
  C   2.70866004242346     -1.10682080488888     -0.46840707732964
  C   0.74678806501037      0.00164742713461     -0.03953257246512
  C   1.43729807205213      1.10443581993050      0.47251919137217
  C   2.82690898041152      1.08310070924124      0.48662361921490
  C   3.47860436411525     -0.04491180983735      0.00030681172268
  H   3.18414391218786     -2.00771657040780     -0.84418159067380
  H   0.88629565233993      1.95248964451464      0.86232492279146
  H   3.38735941485240      1.92342326536959      0.87987960579880
  H   4.55974277624772     -0.10995841191000     -0.00877389021372
  C   -0.72724085526981     -0.02441482579552     -0.04096843513485
  C   -1.46707216296941      1.07104681212998     -0.49671644306455
  H   -0.95313989022145      1.93493158427047     -0.91125391148986
  C   -1.42599129449874     -1.12283754354946      0.46182191419375
  H   -0.87949525577829     -1.98914435735648      0.81745557887035
  C   -3.45446934815023      0.06826971308979      0.00648332019797
  H   -4.53785897977041      0.13615068375377      0.01604410583557
  N   -2.80356444721024      1.13077615849839     -0.48525868961281
  N   1.37076895153928     -1.10199517553282     -0.48887891297533
  C   -2.81323809783608     -1.07323421630337      0.48406008143698
  H   -3.39567889947526     -1.90110510235130      0.87059137152504
