20
Coordinates from ORCA-job mp2_opt
  C   2.71956740856276     -1.00404560630715     -0.64836066783312
  C   0.74878544802208     -0.00223319948510     -0.04205975184721
  C   1.42729325938167      1.00513358279240      0.64870676587183
  C   2.81745103529629      0.99310123022093      0.66463494287621
  C   3.47919548181854     -0.03149676616172     -0.00295597582527
  H   3.20322021350380     -1.82355179667337     -1.17118337999814
  H   0.86489224029203      1.77655215756199      1.16232857785179
  H   3.37005023470319      1.76156099173634      1.19295176353541
  H   4.56081257975024     -0.08504526159834     -0.02008018805003
  C   -0.72885224034620     -0.03562115320319     -0.04163993921200
  C   -1.46612440569720      0.97105295842126     -0.67080498601773
  H   -0.94834846034354      1.75993520869250     -1.21086460001270
  C   -1.42811140991088     -1.02768893411952      0.64543261374834
  H   -0.88741534304828     -1.82154458680792      1.14945478178262
  C   -3.45553552409474      0.06621479216728     -0.01209139181992
  H   -4.53899191698124      0.13312181637081     -0.01865708231665
  N   -2.80307820846624      1.03209671736279     -0.67236429676591
  N   1.38071521551634     -1.00846478250408     -0.67115973328786
  C   -2.81623589553290     -0.97534500955164      0.65686283907837
  H   -3.39932071242572     -1.72457735891427      1.17916770824197
