20
Coordinates from ORCA-job mp2_opt
  C   2.67834325964008     -1.19112833197077     -0.27141594859924
  C   0.74650110702981      0.02550644282234     -0.00423515956633
  C   1.47905308205429      1.18630810102878      0.26650233045827
  C   2.86722918827901      1.13220629392154      0.25203355007240
  C   3.48440981935881     -0.08210017805547     -0.02675048728500
  H   3.12173765624937     -2.15875865898105     -0.48614972667657
  H   0.96964414747070      2.11019124750539      0.51156043891941
  H   3.45394657238599      2.01874224178294      0.46359475002745
  H   4.56333205910957     -0.17480694162045     -0.04941386025647
  C   -0.72949393645420      0.03192318860372     -0.01722085536669
  C   -1.43767798892128     -1.14590430744227      0.25660338555119
  H   -0.88739390135362     -2.05778148648152      0.46051030963648
  C   -1.47146648327799      1.18738193149227     -0.27304756749793
  H   -0.97775613839523      2.12106233768402     -0.51928833829244
  C   -3.46203718712304     -0.10696095931333      0.03573909605857
  H   -4.54370539393211     -0.19633062770558      0.06104791557919
  N   -2.77160372259819     -1.22783671715748      0.28639752959253
  N   1.34265930742948     -1.15197269916881     -0.26614656521889
  C   -2.85838327041295      1.11462330862915     -0.24770699692412
  H   -3.46611117653850      1.98784281442657     -0.45324580021182
