20
Coordinates from ORCA-job mp2_opt
  C   2.68347130670888     -0.95146492528494     -0.77205644874148
  C   0.74967835958347      0.02608475238744     -0.02517665999069
  C   1.46506321844897      0.94683917740614      0.74395652328345
  C   2.85464913491003      0.90107457433700      0.73141800001091
  C   3.47857408752798     -0.06836751965621     -0.04616393941803
  H   3.13682342276241     -1.72435617047936     -1.38520932629592
  H   0.93125686955721      1.67881240898020      1.33935349696041
  H   3.43564566014777      1.60178166662260      1.32010929913236
  H   4.55802343297913     -0.14583466910451     -0.08922658973973
  C   -0.73043886629332      0.03255334742695     -0.01315700812367
  C   -1.43292275420388     -0.90673999439386      0.74683166584862
  H   -0.88581747699120     -1.63877509456922      1.33475229088841
  C   -1.46531236751152      0.94414925447684     -0.76973526288514
  H   -0.95593676892766      1.67881549969102     -1.38481354632657
  C   -3.45536731861650     -0.08481785719623      0.07671843519467
  H   -4.53696762461763     -0.15579388080276      0.13533431481610
  N   -2.76745326695490     -0.97369365867357      0.80662648359056
  N   1.34434780269709     -0.92210975011218     -0.76931371158224
  C   -2.85351626942102      0.88349543466400     -0.72239799469491
  H   -3.46288658178531      1.56988840428065     -1.29831202192710
