20
Coordinates from ORCA-job mp2_opt
  C   2.67859337850435     -1.16640374094308      0.36448997704001
  C   0.74591255899176      0.02262831071321      0.01371185571675
  C   1.47219016088340      1.16047391623170     -0.35309997145175
  C   2.86060472464626      1.11074332099014     -0.34062098610130
  C   3.48024438507589     -0.07749475864917      0.03084688988174
  H   3.12615187605554     -2.11321541809259      0.65124781984421
  H   0.95296239470731      2.05894243401777     -0.66521197825858
  H   3.44553196690078      1.97768471204696     -0.62549853380186
  H   4.55944202184557     -0.16646701329855      0.05588140159121
  C   -0.72854150301268      0.02971843748400      0.01459196244277
  C   -1.43614360043612     -1.12373365430787     -0.34558295737589
  H   -0.88661476343941     -2.01966322832853     -0.61483668225865
  C   -1.46593862011445      1.16243590365299      0.36462431044576
  H   -0.96381405100510      2.07073348892711      0.68114984318577
  C   -3.45778218502962     -0.10086652750632     -0.04615062010883
  H   -4.53955286511184     -0.18619664823704     -0.07863143848086
  N   -2.76989703839288     -1.20033144743281     -0.38458175137503
  N   1.34192405996350     -1.13268153968082      0.35963987843500
  C   -2.85329085349648      1.09393022368475      0.33430713391472
  H   -3.46074304753578      1.94747122872816      0.61079884671481
