20
Coordinates from ORCA-job mp2_opt
  C   2.67650705212807     -1.20982937958461      0.17476499366507
  C   0.74753936361013      0.03208808086940     -0.00397696418152
  C   1.48836550023595      1.20695334870926     -0.17419146869601
  C   2.87626799971884      1.14524437960851     -0.16041026862945
  C   3.48888965795674     -0.08933360955509      0.02060684840037
  H   3.11394097622891     -2.19376183836595      0.31466360568700
  H   0.99079461950661      2.15355186730123     -0.34206713277343
  H   3.46625238254197      2.04463912489628     -0.29463767862351
  H   4.56736359955198     -0.18796169804009      0.03897293277039
  C   -0.73084227197621      0.03771135470128      0.01700220004429
  C   -1.43751582589813     -1.15988253515160     -0.16474662824755
  H   -0.88513594325771     -2.08258390149391     -0.29945635619050
  C   -1.47959081518822      1.20671482895945      0.17657496615007
  H   -0.99651676855359      2.16246715344097      0.34381702369790
  C   -3.46644547707816     -0.11469785852295     -0.02422384115725
  H   -4.54784403633218     -0.20939053643413     -0.04156040143321
  N   -2.77151117611287     -1.24899091362543     -0.18482532546209
  N   1.34186431856639     -1.16270975737272      0.16928276043988
  C   -2.86599693945724      1.12716247790404      0.15823850994410
  H   -3.47553121619129      2.01341641175607      0.28952722459545
