20
Coordinates from ORCA-job opt
  C   -2.85982684056049      0.97534958665503      1.32404880793117
  C   -0.92887917205918      1.45865855882041      0.17850117374483
  C   -1.64987787633780      2.10398854799749     -0.83162810855178
  C   -3.03317460105947      2.18508437343107     -0.73030194566130
  C   -3.65426585370611      1.61163981625183      0.37373608426741
  H   -3.30916869498460      0.50782285884644      2.19504602850628
  H   -1.13362346668258      2.51159943889289     -1.69268553659021
  H   -3.61441316842835      2.67384335911549     -1.50389258080547
  H   -4.73160556658903      1.63060308565449      0.48501247570516
  C   0.54000874694560      1.34560323883416      0.11281251189404
  C   1.18079512264036      0.21621771311905      0.63752097314040
  H   0.58476647001157     -0.56630282140938      1.09531265560051
  C   1.33708206081598      2.33475228514068     -0.46641812699205
  H   0.89118747739961      3.24240368576938     -0.85949489654670
  C   3.24922328710149      0.98968993249596      0.04943459921361
  H   4.32142438584299      0.81908401557643      0.04230378630477
  N   2.50399815927060      0.02757351963664      0.61080889395942
  N   -1.52763858375732      0.89383541911049      1.24246089240816
  C   2.71402032398999      2.15228076136738     -0.49750512016365
  H   3.36696779014674      2.90226962469404     -0.92807356736461
