20
Coordinates from ORCA-job opt
  C   -2.72603547140500      1.94525250438160      1.44677696956063
  C   -0.92784366804437      1.48148383500124      0.11970309268095
  C   -1.75942766824170      1.27076339331791     -0.98472597409685
  C   -3.14101852235692      1.40393755522393     -0.84459225334317
  C   -3.63706617541137      1.73783640307940      0.40818060120241
  H   -3.08647219812968      2.23275786891676      2.43039175921387
  H   -1.31994618903719      1.01806852436202     -1.94318787518726
  H   -3.79709112028765      1.26586434954835     -1.69632871880652
  H   -4.65814904113709      1.99224938368344      0.66711834144840
  C   0.54000957643566      1.36031168953246      0.01802695586385
  C   1.14128856725073      0.16356142270346     -0.37921890115422
  H   0.52478763939922     -0.70962336542640     -0.57245330096355
  C   1.37076856274948      2.42747318115503      0.36138556465146
  H   0.93688270250159      3.35895103360646      0.70814650591727
  C   3.24147690917934      1.03688714423843     -0.18992185721696
  H   4.31080261126175      0.88111537509290     -0.29501521238621
  N   2.46368605218850     -0.01121441136491     -0.48896005955425
  N   -1.40131141934251      1.82933313940836      1.32827599487568
  C   2.74489278122151      2.26289941280592      0.24827330974649
  H   3.42676507120572      3.06809156073361      0.49512705754797
