20
Coordinates from ORCA-job mp2_opt
  C   2.68979032379532     -0.90904663060847      0.81500867891622
  C   0.75006595913027      0.01753949531872      0.02065396025141
  C   1.45943811515227      0.90607487356185     -0.79042475235666
  C   2.84934944568635      0.86815806639333     -0.77785045939624
  C   3.47932354437522     -0.05966460789892      0.04427445103549
  H   3.14806586264187     -1.64733193432219      1.46599884405196
  H   0.92097258812438      1.60750982952714     -1.41748546963422
  H   3.42585669093788      1.54450903183548     -1.39857797613262
  H   4.55921084160558     -0.12959136583177      0.08910873312926
  C   -0.73063835200221      0.02312810458508      0.01742946411882
  C   -1.43840346836280     -0.86837415197894     -0.79310218135069
  H   -0.89590031932479     -1.56903264525726     -1.42226803881745
  C   -1.46027715641651      0.89896288660233      0.81981765948357
  H   -0.94658421625925      1.59904016407308      1.47047206671778
  C   -3.45620629834629     -0.07597652520230     -0.07584447436397
  H   -4.53820261360415     -0.13910283365924     -0.13597145547908
  N   -2.77355139414996     -0.92747803548394     -0.85331015404107
  N   1.35046695998622     -0.88628532068451      0.81364016103368
  C   -2.84870275099163      0.84686807842257      0.77156157133432
  H   -3.45414676197776      1.50655252060796      1.38180737149951
