20
Coordinates from ORCA-job mp2_opt
  C   2.67341683650401     -1.07827833749193      0.58778414673659
  C   0.74709755066419      0.03615433010231      0.03582240523923
  C   1.47160407680299      1.07352650087357     -0.55816452084848
  C   2.86030635306691      1.01624560634731     -0.55237038932007
  C   3.47619653474467     -0.08220370726721      0.03760359731304
  H   3.12011767830780     -1.95445195228863      1.04785581526279
  H   0.94538252159732      1.90058930637696     -1.02127808726193
  H   3.44756230690916      1.80485530919610     -1.00867291109013
  H   4.55500930406966     -0.17459406024749      0.06533600063600
  C   -0.72866839855868      0.04290243998160      0.00894223077211
  C   -1.42439397918572     -1.02831369611898     -0.56077527687961
  H   -0.86878027199645     -1.85529075830945     -0.99330036790251
  C   -1.47082672393757      1.07464688470439      0.58308698383828
  H   -0.96747791865548      1.90903995179592      1.06116520317952
  C   -3.45259240719655     -0.09994036314051     -0.06963730490372
  H   -4.53364166175230     -0.18490317117700     -0.11971031893135
  N   -2.75763461780608     -1.10748854197209     -0.61669032718631
  N   1.33525028634079     -1.03890131793310      0.58890817392092
  C   -2.85843304352284      1.00120587556614      0.54052115315588
  H   -3.47332042639585      1.77688670100207      0.98120979426973
