20
Coordinates from ORCA-job opt
  C   -2.88626453311912      0.52452996972081     -0.61425045475902
  C   -0.92604302311849      1.49107423902969      0.10579901976012
  C   -1.63397247951819      2.48200500039409      0.79444088322241
  C   -3.02263738600006      2.47130366653203      0.76140571827234
  C   -3.66746588635418      1.47380577769850      0.03894888739282
  H   -3.34990761166210     -0.27261024272328     -1.18772491013939
  H   -1.10948886683619      3.26832600034005      1.32201096240048
  H   -3.58884177915392      3.23649929497532      1.28003903022869
  H   -4.74831538827645      1.44151052563675     -0.02452824291560
  C   0.55133848294847      1.46570974976726      0.07738333928247
  C   1.32736952027230      2.14118261127963      1.02687885068912
  H   0.85553463913845      2.69039744360526      1.83597149740230
  C   1.22673820712835      0.75329904490082     -0.91734903732399
  H   0.65544039409908      0.21130591361402     -1.66117201288760
  C   3.28900978479841      1.47475787414517      0.06579316316183
  H   4.37413704098257      1.50264141544141      0.08670154376348
  N   2.66480523135464      2.15693477492359      1.03429035894059
  N   -1.55013669947074      0.52187354632149     -0.58830085965719
  C   2.61428510623683      0.75969464522933     -0.92061916417203
  H   3.17141424655033      0.22175874916803     -1.67871957266182
