20
Coordinates from ORCA-job mp2_opt
  C   2.67492352955245     -1.05171135553299     -0.63572574414445
  C   0.74781163100512      0.03557919673756     -0.03569208775228
  C   1.47093113250179      1.04639061964012      0.60352484088188
  C   2.85979182964980      0.98993229170417      0.59686514187532
  C   3.47667320685861     -0.08087469564549     -0.04086672219317
  H   3.12242109016065     -1.90622414931900     -1.13414418948400
  H   0.94337422575318      1.85303786361671      1.09992424468767
  H   3.44621311306447      1.75820829146754      1.08767906155078
  H   4.55554945109500     -0.17137156216666     -0.07186366467384
  C   -0.72913550846704      0.04226876121997     -0.01016704915305
  C   -1.42476156193277     -1.00153247564854      0.60784143652428
  H   -0.86995621163411     -1.80830818214318      1.07833544842956
  C   -1.47100573328754      1.04716148080041     -0.63000485011748
  H   -0.96735897156054      1.86042476615552     -1.14280068756516
  C   -3.45294144895988     -0.09720933285251      0.07432521390432
  H   -4.53399725485657     -0.17968637653956      0.12816050450656
  N   -2.75817526297420     -1.07861458570146      0.66712563245901
  N   1.33647784256654     -1.01320872018888     -0.63619841589858
  C   -2.85871683861929      0.97518741120451     -0.58501713196825
  H   -3.47350925991568      1.73052075319175     -1.05993098186913
