20
Coordinates from ORCA-job opt
  C   -2.85794629265672      1.00211717489898      1.34052671972908
  C   -0.92793244679691      1.46847265518667      0.18693369187453
  C   -1.64910032131039      2.09376859447853     -0.83540010469621
  C   -3.03275718399812      2.17040778578876     -0.73791728009954
  C   -3.65328913727789      1.61566399015682      0.37619677899382
  H   -3.30685861854839      0.54806894876573      2.21883582173654
  H   -1.13142163377650      2.48577120749391     -1.70296884655787
  H   -3.61557858189118      2.63762716970475     -1.52355124579422
  H   -4.73282644181237      1.60434412428818      0.46556519989733
  C   0.54021197923888      1.35066266458676      0.11703606618698
  C   1.17661651708660      0.20793509370988      0.61694547066684
  H   0.57790773738900     -0.58278579421121      1.05713289189506
  C   1.33951289706322      2.34692947678447     -0.44644356440523
  H   0.89469506023081      3.26275713998139     -0.82166875147301
  C   3.24680704162191      0.98407850084399      0.03961054729392
  H   4.31829261732870      0.80928646646958      0.02699141890571
  N   2.49884778298283      0.01384414777126      0.58315263571862
  N   -1.52500024058565      0.92393269228501      1.26227094852860
  C   2.71560868982194      2.15918302521314     -0.48409916937723
  H   3.37121157589023      2.91393693580338     -0.90215122902372
