20
Coordinates from ORCA-job opt
  C   -2.85620445463956      1.03357089789970      1.35873806100959
  C   -0.92694456817725      1.47878344716371      0.19602201614344
  C   -1.64814363734856      2.08002917315109     -0.84017658724000
  C   -3.03215813041226      2.15268791307969     -0.74664176904034
  C   -3.65269163097594      1.62089502289691      0.37899042751112
  H   -3.30453566781136      0.59587397050262      2.24560176287389
  H   -1.12953102476396      2.45379812132442     -1.71534432156312
  H   -3.61613872851023      2.59488368933456     -1.54579930383369
  H   -4.73307897566311      1.57721139557693      0.44594250455529
  C   0.54032674998126      1.35579903423830      0.12165736507081
  C   1.17197943905667      0.19861470620681      0.59279925189668
  H   0.57012483005553     -0.60119548432798      1.01210686732405
  C   1.34209289567715      2.36004902264953     -0.42327326034106
  H   0.89911722879246      3.28473257238591     -0.77875763224164
  C   3.24424418762271      0.97849646457482      0.02889537328668
  H   4.31493941061213      0.79947262817754      0.01049639770404
  N   2.49307434163323     -0.00094270692409      0.55121878220043
  N   -1.52253011046150      0.95856691579937      1.28399089762239
  C   2.71737899605256      2.16714459467712     -0.46806572179789
  H   3.37567784928005      2.92752762161305     -0.87140011114070
