20
Coordinates from ORCA-job mp2_opt
  C   2.68345860890555     -0.95136151012077      0.77210027832551
  C   0.74965008809807      0.02610085122225      0.02515175806563
  C   1.46502389785607      0.94687202286909     -0.74397460079271
  C   2.85460995954380      0.90115726192128     -0.73139799976202
  C   3.47854742158214     -0.06824360422756      0.04621845000348
  H   3.13682464415822     -1.72422414035224      1.38527897364427
  H   0.93119765648304      1.67881466927965     -1.33939126669784
  H   3.43559487563441      1.60187563571282     -1.32008785975828
  H   4.55799785263611     -0.14566807596967      0.08932701297760
  C   -0.73046711107387      0.03252283644375      0.01310360665311
  C   -1.43288447947158     -0.90681869068205     -0.74689233824781
  H   -0.88571345622968     -1.63883226734881     -1.33477885275357
  C   -1.46540494917504      0.94409448011680      0.76964612026623
  H   -0.95608126524509      1.67879267096715      1.38472957777161
  C   -3.45538548225563     -0.08498427018751     -0.07685468997316
  H   -4.53698140141808     -0.15600566230344     -0.13549692844691
  N   -2.76740806693071     -0.97383787206314     -0.80672908712093
  N   1.34433349959294     -0.92206367615350      0.76931293897611
  C   -2.85360469987470      0.88336924794122      0.72226658142750
  H   -3.46303759281595      1.56973209293468      1.29815032544218
