20
Coordinates from ORCA-job mp2_opt
  C   2.67879934435103     -1.17938956594944     -0.31853826980389
  C   0.74612756674423      0.02332890112504     -0.00877317218721
  C   1.47505992556503      1.17380588102826      0.31070324259619
  C   2.86336314888787      1.12255902161876      0.29690531508894
  C   3.48221847886191     -0.07921271887161     -0.02913567920847
  H   3.12466914992998     -2.13703420636207     -0.56978275137287
  H   0.96022118676416      2.08504654658593      0.59053842287014
  H   3.44886733175222      2.00015409225512      0.54573522610264
  H   4.56131354190573     -0.16952690429134     -0.05340889304927
  C   -0.72893967039103      0.03009985065492     -0.01637362261403
  C   -1.43719665311884     -1.13590069858087      0.30153190494266
  H   -0.88756677538235     -2.04050582640880      0.53850445529359
  C   -1.46818516615562      1.17538916761118     -0.31969363804855
  H   -0.96976563984412      2.09656926327225     -0.60215524210185
  C   -3.45984143353954     -0.10347606373437      0.04128037101232
  H   -4.54158662986209     -0.19050881927922      0.07048522272595
  N   -2.77103306226002     -1.21461868526237      0.33634756009298
  N   1.34260380205282     -1.14355452308756     -0.31323363208937
  C   -2.85534011823054      1.10531708992577     -0.29158436948265
  H   -3.46264732803084      1.96951819775041     -0.53316545076723
