20
Coordinates from ORCA-job opt
  C   -2.69828793380548      2.36376263781385      1.29906217567733
  C   -0.92518704154367      1.49895961875730      0.11443701631494
  C   -1.79283123648381      0.92606347178979     -0.82167998413164
  C   -3.16326407996865      1.09353698565674     -0.66850186156337
  C   -3.63081514514240      1.83138402828513      0.41303831848541
  H   -3.02117374716010      2.94455221763830      2.15795593399299
  H   -1.40398531596821      0.38456205434323     -1.67449522321931
  H   -3.85128841830750      0.66610006338634     -1.38892725252166
  H   -4.69130837146016      1.99820406374306      0.55737593469674
  C   0.54281323209062      1.38230806898329     -0.00984748514984
  C   1.14880066435256      0.39152461530612     -0.79160928737264
  H   0.54594089038327     -0.34356543724750     -1.31611385888522
  C   1.38195977249137      2.27515279342060      0.66234296631052
  H   0.94475883531531      3.04718357251422      1.28382274910330
  C   3.25344839903773      1.12766711772098     -0.29726179838243
  H   4.32290171052601      1.00242614081013     -0.43618731567013
  N   2.47060018542883      0.25461137570397     -0.94371902226317
  N   -1.37784073282036      2.20786244756214      1.16475994681348
  C   2.75536964646068      2.14358262812905      0.51478233070006
  H   3.43638868657397      2.82012053568326      1.01776671706466
