20
Coordinates from ORCA-job mp2_opt
  C   2.70520036560007     -0.90674571693918      0.79999133857407
  C   0.75012865970432     -0.00915931641090      0.00981003194006
  C   1.44437940281250      0.89386433129386     -0.79838922941882
  C   2.83479657884886      0.88028527826468     -0.78450099312772
  C   3.48032067241334     -0.03949229552050      0.03452988944923
  H   3.17588509914564     -1.63980895876423      1.44804260301901
  H   0.89417896100754      1.59033990449285     -1.42074420076520
  H   3.39985104577827      1.57037547514724     -1.40061197035481
  H   4.56122164221804     -0.08916904035472      0.08169118769822
  C   -0.73043305922276     -0.02641151250471      0.00586717083526
  C   -1.45361618909643      0.86968881762538      0.79709582920366
  H   -0.92397189129881      1.56949407020554      1.43839249442351
  C   -1.44462152374147     -0.90721757740951     -0.80527551015910
  H   -0.91786596787755     -1.61757158345365     -1.43372666692148
  C   -3.45734611899390      0.07037471778921      0.04974103306414
  H   -4.54033080952456      0.13241751749432      0.08986676547970
  N   -2.79010921030839      0.92906247397907      0.83211723054918
  N   1.36575138302437     -0.90757669456298      0.79735263859212
  C   -2.83337461594670     -0.85864735325884     -0.77933645527985
  H   -3.42729842454238     -1.52710753711293     -1.39134018680120
