20
Coordinates from ORCA-job mp2_opt
  C   2.68214006694068     -1.22759771077511      0.00000019157116
  C   0.74996094347941      0.02683904456783     -0.00001380021415
  C   1.49250228637575      1.21315930316139     -0.00001764381816
  C   2.88016406312567      1.14951619863716     -0.00000581243170
  C   3.49457434809931     -0.09712963816838     -0.00000192631905
  H   3.11950838800957     -2.22139713182611      0.00000112081459
  H   1.00138625921001      2.17675488022986     -0.00001463175443
  H   3.46856525975704      2.05986824700912     -0.00001243290803
  H   4.57311807585534     -0.19635112267718      0.00000318501869
  C   -0.73134702635137      0.01731563892762     -0.00002112885811
  C   -1.49383525148477      1.19232580526283     -0.00004276366466
  H   -1.01681749437494      2.16636560214298     -0.00006765677795
  C   -1.42768250474020     -1.19543962463438     -0.00001429194874
  H   -0.86956621575586     -2.12324775803659      0.00001059460275
  C   -3.47369821948909      0.05101414029689     -0.00005725045331
  H   -4.55818634630293      0.09992254282082     -0.00006071323487
  N   -2.83100551880304      1.22558777356426     -0.00005864557970
  N   1.34760242571273     -1.17885934704011     -0.00000422144743
  C   -2.81477857972660     -1.17558486518480     -0.00003339344753
  H   -3.38348495953670     -2.09805897827810     -0.00002977914937
