20
Coordinates from ORCA-job opt
  C   -2.91662617126630      0.42969500767787      0.73947446730125
  C   -0.93358910323567      1.41309248121721      0.12868508358599
  C   -1.60352870830873      2.53225198448534     -0.37591456265700
  C   -2.99061673246595      2.57473262440143     -0.31382519289271
  C   -3.66495518470787      1.49863681446598      0.25333757782105
  H   -3.40654682050278     -0.42293221141087      1.20002109133193
  H   -1.03959654586609      3.36434132191835     -0.78096145149575
  H   -3.53272085848719      3.43825125535489     -0.68216079101659
  H   -4.73972879369225      1.52448649997940      0.38672427722500
  C   0.53866328389467      1.33721055843025      0.10275655739687
  C   1.22912445390163      0.74378370777920      1.16643917420754
  H   0.66876354780728      0.34065337128556      2.00374263361194
  C   1.29003398546248      1.85313571612683     -0.95461482883577
  H   0.79769724606454      2.29842174854892     -1.81300340321024
  C   3.26192472428612      1.14337255974010      0.20262151022317
  H   4.34122993097527      1.04738145103765      0.27107325121476
  N   2.56073653315375      0.64455809788253      1.23015381068755
  N   -1.58123888928835      0.37310707629440      0.68387643565850
  C   2.67479841171570      1.75249072604956     -0.90264637848921
  H   3.29317469055974      2.12933020873540     -1.70877826166826
