20
Coordinates from ORCA-job opt
  C   -2.71691698504612      2.86237458592307      0.66500631933159
  C   -0.92350792987458      1.56732539570572      0.07237318990226
  C   -1.76417969702195      0.51081974548174     -0.29434860641593
  C   -3.14298712885050      0.67150692473567     -0.19420392489424
  C   -3.63096830713162      1.88171109681634      0.28288583825995
  H   -3.06625351211710      3.80874370423918      1.06727171902431
  H   -1.33556933341546     -0.42117157856744     -0.64450126703799
  H   -3.81430901629397     -0.13249922492994     -0.47327194539706
  H   -4.68385716551223      2.09520767588907      0.42244928619354
  C   0.54058260432521      1.46402635032094     -0.06135688753785
  C   1.12390448586926      0.90301395087032     -1.20173474662048
  H   0.49482050745411      0.57925151215379     -2.02692033031420
  C   1.38901933826199      1.95648757138847      0.93165344499413
  H   0.96699351110548      2.42609103132179      1.81287411999707
  C   3.23809483932491      1.22376393288510     -0.40453202787127
  H   4.30506203624833      1.10224035684267     -0.56442375606837
  N   2.44307942515709      0.77491521821411     -1.38430576728760
  N   -1.39105924829762      2.72610147359704      0.56931786321824
  C   2.76004035580335      1.82806195049438      0.75662239584895
  H   3.45501222001142      2.18802932661798      1.50614608267495
