20
Coordinates from ORCA-job opt
  C   -2.71481274473654      2.16000517086703      1.39224702602726
  C   -0.92327399256023      1.53192788278480      0.10881649874630
  C   -1.76636450006780      1.13411013046561     -0.93439565500285
  C   -3.14420802883996      1.23809631343929     -0.77211043097601
  C   -3.63032949787390      1.75043349996384      0.42461346315773
  H   -3.06136624827568      2.58768894343731      2.32840334069235
  H   -1.34127917375907      0.75913461190684     -1.85818643339956
  H   -3.81772171303027      0.93456358060231     -1.56536238333090
  H   -4.68583840461276      1.88192385081829      0.62994426779077
  C   0.54069050169703      1.39840432232345      0.00394833192322
  C   1.12491527949356      0.26588261271166     -0.57228726694274
  H   0.49714355803150     -0.55489756351697     -0.90953421759505
  C   1.38905206674790      2.38617460392838      0.50734378394558
  H   0.96617961389713      3.26145243954362      0.98702669083176
  C   3.23885120847768      1.06004895912125     -0.24163801737583
  H   4.30587166729855      0.90203067874650     -0.36508953668254
  N   2.44410196809982      0.08589948317786     -0.70307259853961
  N   -1.38924978684519      2.06038731760287      1.25437071427328
  C   2.76010087708152      2.21345999017251      0.37668158695182
  H   3.45453834977672      2.95927617190353      0.74528183550504
