20
Coordinates from ORCA-job mp2_opt
  C   2.67303982799454     -1.10118529669857      0.54081462266561
  C   0.74646961312477      0.03449612732363      0.03347488566171
  C   1.47159467869337      1.09663043643174     -0.51484279116925
  C   2.86020760095375      1.04036067855901     -0.50847637488666
  C   3.47601857623188     -0.08183687130098      0.03519042961556
  H   3.11974747957238     -1.99582723761779      0.96384886007888
  H   0.94632867895322      1.94141878308297     -0.94588285464204
  H   3.44762393085687      1.84802793092531     -0.92985425269948
  H   4.55487080158297     -0.17440981288962      0.06102929546369
  C   -0.72835126052282      0.04148810744037      0.00774856423594
  C   -1.42575523426946     -1.05248062817903     -0.51555777807033
  H   -0.87060083543162     -1.89718097879969     -0.91241475716395
  C   -1.46945547967242      1.09806417364184      0.53699931878396
  H   -0.96553493483039      1.95071525674201      0.98111810801627
  C   -3.45270864948091     -0.10116968383863     -0.06392304912815
  H   -4.53388012880706     -0.18718032812012     -0.10945636885170
  N   -2.75900186311617     -1.13229194790972     -0.56698175392766
  N   1.33511249012259     -1.06258216546693      0.54151026015330
  C   -2.85702180626466      1.02484997592268      0.49748799934553
  H   -3.47082448569082      1.81944148075151      0.90466863651878
