20
Coordinates from ORCA-job mp2_opt
  C   2.67658277608401     -1.02231188319556     -0.68270531879324
  C   0.74849448404638      0.03393958538483     -0.03341889085635
  C   1.47015166961747      1.01639331174490      0.64965486273752
  C   2.85920842929119      0.96197894106682      0.64063302450124
  C   3.47718853138478     -0.07849941130579     -0.04443419754416
  H   3.12509486158348     -1.85279158614331     -1.21934376713504
  H   0.94130672398295      1.80070031531718      1.17933114794130
  H   3.44469930743137      1.70891500036585      1.16443384176299
  H   4.55616712403304     -0.16601225500130     -0.07989975417331
  C   -0.72964352010036      0.04080550769246     -0.01036767012123
  C   -1.42620956648429     -0.97260468498424      0.65484820810285
  H   -0.87299677473379     -1.75694252012281      1.16388951279153
  C   -1.47037014111201      1.01670411116812     -0.67590179650974
  H   -0.96580186968629      1.80674669079421     -1.22281404675768
  C   -3.45357512430215     -0.09435812629743      0.07697830232247
  H   -4.53471902735727     -0.17400276193043      0.13311772786902
  N   -2.75989205335337     -1.04751369576390      0.71522028247644
  N   1.33787494769028     -0.98559227425126     -0.68156595514466
  C   -2.85821765415239      0.94703006863299     -0.62947303829615
  H   -3.47217612386304      1.68083466682866     -1.13808447517380
