20
Coordinates from ORCA-job opt
  C   -2.86750116507831      0.90209582813002      1.27439848897758
  C   -0.93241064521120      1.42899668467158      0.15356456799814
  C   -1.65187900362369      2.12866983930074     -0.82094357242966
  C   -3.03370010528761      2.22471896988324     -0.70811205124955
  C   -3.65844151062725      1.60246715751073      0.36665698711825
  H   -3.31850176799501      0.39733732796380      2.12360094758575
  H   -1.13871888771167      2.57863192162235     -1.66220567130821
  H   -3.60859094829572      2.77320035964231     -1.44558522452429
  H   -4.72269358376907      1.70375973004700      0.54166001775590
  C   0.53924517148575      1.33053296906464      0.10097774654972
  C   1.19254601765858      0.24249335006419      0.69476729296511
  H   0.60379229814292     -0.51572313739517      1.19936973182128
  C   1.33031938456802      2.29846324366593     -0.52156121901980
  H   0.88213784952400      3.18061255202327     -0.96588752244156
  C   3.25591866785610      1.00849771487796      0.07875839185762
  H   4.33012280569110      0.85094236529276      0.08774163143582
  N   2.51819776500099      0.07085323204923      0.68896387730342
  N   -1.53766009086114      0.80930508729059      1.18283799043272
  C   2.70949388506604      2.13251889369856     -0.53317279441586
  H   3.35532186346717      2.86762491059625     -0.99882861641235
