20
Coordinates from ORCA-job opt
  C   -2.85884397727578      0.98835296622026      1.33218151301028
  C   -0.92839517510615      1.46358298235634      0.18267890752713
  C   -1.64951859119338      2.09921143003997     -0.83340368699088
  C   -3.03300354522488      2.17798050296784     -0.73400400436630
  C   -3.65375660072327      1.61349962548350      0.37494953935805
  H   -3.30795228249148      0.52732536127581      2.20675072443782
  H   -1.13255847411273      2.49928980894920     -1.69763867785083
  H   -3.61508479400559      2.65622368954733     -1.51351877254692
  H   -4.73235439742427      1.61744672742159      0.47525664088155
  C   0.54012249129906      1.34818200167267      0.11489815887539
  C   1.17873011679463      0.21217718992379      0.62753095016202
  H   0.58135095474242     -0.57434696121476      1.07678800035628
  C   1.33830943603348      2.34077785673521     -0.45672157954243
  H   0.89293687127826      3.25247516367726     -0.84108573201663
  C   3.24803062767834      0.98684090022879      0.04459471773509
  H   4.31987658726458      0.81412456117133      0.03475937725307
  N   2.50144889093156      0.02077018423506      0.59733698032749
  N   -1.52627801510279      0.90857553386270      1.25224668248878
  C   2.71482289375215      2.15561666459144     -0.49104582765327
  H   3.36911498288587      2.90789381085466     -0.91555291144570
