20
Coordinates from ORCA-job opt
  C   -2.71832700437604      2.08331605090363      1.41468558705946
  C   -0.92413657898564      1.52484292276583      0.11027982517449
  C   -1.76281547278705      1.19093008240463     -0.95837421414473
  C   -3.14304223615257      1.29119557685116     -0.80148472088777
  C   -3.63243228024216      1.73320379591406      0.42092613088224
  H   -3.07078509122647      2.46011882184483      2.37043250593757
  H   -1.33073343011116      0.86321292407652     -1.89706864249577
  H   -3.81116195421444      1.04049548009869     -1.61740277202317
  H   -4.67867081050831      1.89780360119383      0.64904498015061
  C   0.54059963128774      1.39295748486214      0.00801703069707
  C   1.12564293622292      0.22984722035127     -0.50114581113755
  H   0.49738625429379     -0.61158174075769     -0.78144906064716
  C   1.38658349379921      2.40928966638403      0.45420911231806
  H   0.96345916143502      3.30922989461709      0.88614626448425
  C   3.23796785168690      1.04742954420720     -0.22264682622007
  H   4.30516275243448      0.88560108302819     -0.33954919862807
  N   2.44520030441625      0.04543443178366     -0.62366278894501
  N   -1.39247950714255      1.98913011338863      1.28187509005805
  C   2.75800105736610      2.23331725103704      0.32999416766437
  H   3.45158292280398      3.00022379504525      0.65417334070315
