20
Coordinates from ORCA-job opt
  C   -2.93229455672152      0.36586241361926      0.59694614082434
  C   -0.93708347159341      1.38481623445212      0.09589170655858
  C   -1.59085934062628      2.55468961001736     -0.29880768703678
  C   -2.97704317125654      2.60815342063966     -0.23136040087349
  C   -3.66806430442903      1.48868557605421      0.22359066038524
  H   -3.43140314358461     -0.51989815645302      0.97818671285823
  H   -1.01267608905481      3.41409434654110     -0.61874368105844
  H   -3.50666395970472      3.51718743189269     -0.49320430616020
  H   -4.72062767443281      1.57089793209841      0.46795073635749
  C   0.53582579537991      1.32235271748930      0.08783805065718
  C   1.22660456159110      0.85607152243650      1.21159957516975
  H   0.66810231997708      0.54885455735222      2.09025453404769
  C   1.28461591795490      1.75074261257700     -1.00868547053884
  H   0.78736375580621      2.11049652939786     -1.90394474752760
  C   3.25891443660640      1.18584522055311      0.22186856782744
  H   4.33891812962345      1.11175336271198      0.30431025000813
  N   2.55905708350280      0.78574226298562      1.29267659179103
  N   -1.59591212139418      0.29853738308743      0.53660935852750
  C   2.67084974757648      1.67640932136407     -0.94069842149849
  H   3.28937608477959      1.98470470118311     -1.77528117031875
