20
Coordinates from ORCA-job mp2_opt
  C   2.67908147756502     -0.98923605541999      0.72764115722304
  C   0.74910574880875      0.03129576239196      0.02943620741924
  C   1.46850859900731      0.98368898769915     -0.69670870175352
  C   2.85780579884912      0.93267588685163     -0.68528181310002
  C   3.47778817452989     -0.07440649255404      0.04629042044857
  H   3.12928195262166     -1.79290212275767      1.30232938001102
  H   0.93782626216472      1.74338786001498     -1.25933229636921
  H   3.44174058221731      1.65719517632550     -1.24133322348587
  H   4.55693659203990     -0.15764846484160      0.08622496186204
  C   -0.73011039734017      0.03818497310083      0.01067921230197
  C   -1.42890057316607     -0.94130659242994     -0.70089471591311
  H   -0.87822702778153     -1.70098111319138     -1.24885335507765
  C   -1.46859860272115      0.98295155312306      0.72184902739497
  H   -0.96219143280939      1.74729234704006      1.30239989117531
  C   -3.45445320899740     -0.09084179515398     -0.07708137402574
  H   -4.53577155261244     -0.16712520991697     -0.13435977905411
  N   -2.76294480704575     -1.01342315076378     -0.76067826828610
  N   1.34015360656468     -0.95540366824527      0.72501526859958
  C   -2.85661680516732      0.91662926084087      0.67510721411647
  H   -3.46879138672714      1.62759885788659      1.21723078651311
