20
Coordinates from ORCA-job opt
  C   1.01210258475234      1.07902106249452      0.19706479784726
  N   1.64563244002719      1.01905935533002     -1.00568207896277
  C   -0.45867440365088      0.99699057193795      0.16612185203976
  C   1.73246196867502      1.31293544781807      1.33666283453551
  C   3.02539015226637      1.11621560137623     -1.21365131046009
  H   1.09572420746077      0.79327319087406     -1.82990133703861
  C   3.76175041790374      1.34595464506128      0.00930386065090
  O   3.49420305004273      1.01345232617625     -2.34412566461720
  C   3.13757494868111      1.43437589468551      1.22325636515443
  H   4.83619512626468      1.43792861915720     -0.08641262468983
  H   3.73030801855132      1.60385576693121      2.11591163620976
  H   1.21587733634435      1.40248054056619      2.28158539484219
  N   -1.13589576475888      1.87962907855631      0.91381787347886
  N   -0.98410944130962      0.11376620803384     -0.69689903539469
  C   -2.46828241833743      1.81533510953597      0.83173468637695
  C   -3.11926871202636      0.91484812521004     -0.00301076821726
  H   -3.02155961001424      2.52217065309355      1.44223927400636
  C   -2.31784684964371      0.07776418767769     -0.76874397655414
  H   -4.19905660994056      0.87947714691779     -0.06658737916621
  H   -2.74482744128792     -0.63933653143368     -1.46278540004117
