20
Coordinates from ORCA-job opt
  C   1.01518329501322      1.09652301429099     -0.08599639489766
  N   1.56145200244652      1.99490059186869      0.77817591966616
  C   -0.45824235165877      1.00420059402865     -0.09019833623805
  C   1.82697139774091      0.26782781799386     -0.80917583141799
  C   2.92866778052016      2.21811269581907      0.97804367703269
  H   0.94655911038102      2.63232381823536      1.27550841519390
  C   3.76094949198692      1.34093828319912      0.18625831850878
  O   3.30905766421907      3.08199195862178      1.76369205438986
  C   3.22765654269127      0.41539861003259     -0.66755966860852
  H   4.83082135789501      1.46007716473208      0.30070355351412
  H   3.89025312282389     -0.22050115333540     -1.24505387158660
  H   1.38602398475817     -0.47235963015832     -1.46168961501759
  N   -0.99281443424406     -0.19855446152670      0.16091829065089
  N   -1.12392569905942      2.15997430569517     -0.23576240378491
  C   -2.32872862752981     -0.24849292567930      0.19920083288267
  C   -3.11916270048234      0.88051921720872      0.02434006316392
  H   -2.76736569827364     -1.22226822130097      0.39339754187395
  C   -2.45731416160787      2.08418389799835     -0.18300889436591
  H   -4.19941525510563      0.82768426176214      0.06471822354043
  H   -2.99892582251462      3.01672116051409     -0.30661087450014
