20
Coordinates from ORCA-job opt
  C   1.01156384829887      1.14697968830709     -0.05013357761956
  N   1.62126487049867      1.15120155700715      1.16538890015035
  C   -0.45540652897156      1.05099392185692     -0.04226766306824
  C   1.76454416275288      1.22130711400074     -1.19388461860256
  C   2.99607991449331      1.23284829452207      1.39515906603460
  H   1.02180424329318      1.10231705169569      1.98620351956022
  C   3.76624577945967      1.30996253610998      0.17260247025053
  O   3.44235333315425      1.23275442989202      2.53933551271354
  C   3.16949668370186      1.30452544152355     -1.05878622291165
  H   4.84136568197247      1.37331144828404      0.28429037523870
  H   3.78559753095274      1.36505057737182     -1.94968606294177
  H   1.26820996625118      1.21318463895148     -2.15309783856870
  N   -1.04496071072018      1.04443310706045      1.16292388250466
  N   -1.07751355494574      0.98572558249595     -1.22877809793681
  C   -2.37804052657748      0.96150933085940      1.17511763177534
  C   -3.12006995555595      0.88864653138227      0.00442942136065
  H   -2.85296016922824      0.95514907492716      2.15109377155213
  C   -2.40782784920020      0.90516525864404     -1.19081074326386
  H   -4.20002726147162      0.82220467407362      0.02060550703587
  H   -2.91401845815812      0.85192974103455     -2.14980623326343
