20
Coordinates from ORCA-job opt
  C   1.01164440981561      1.11244211164007     -0.02852665782867
  N   1.61509757101823      1.41186442697743      1.15388928010180
  C   -0.45911490778599      1.07258970218039     -0.01948525485071
  C   1.76682629459471      0.94892025315507     -1.15910832892975
  C   2.99165224415046      1.52300870609503      1.36901895163150
  H   1.03196974388636      1.47393842057368      1.98433122917083
  C   3.76485590226498      1.33110781581917      0.16176924980249
  O   3.43219007946173      1.76459059926296      2.48968723837817
  C   3.17252418891687      1.05324202160910     -1.03968636740475
  H   4.83986780529214      1.41239032696261      0.26129979710481
  H   3.79209145928347      0.91219456149776     -1.91897408243426
  H   1.27443483121624      0.75034076917193     -2.09995197028025
  N   -1.03157074094266      0.62726643953667      1.10969737001246
  N   -1.09066195817961      1.40992288789345     -1.15293985922035
  C   -2.36503999597215      0.54544348037509      1.10652519634328
  C   -3.11980902175477      0.87812224482330     -0.01072220982434
  H   -2.82961505600699      0.19393662891870      2.02238773170711
  C   -2.42201736887863      1.30883872487835     -1.13356223752976
  H   -4.19943697424389      0.80385128336677     -0.00799858198779
  H   -2.93819050613612      1.58518859526246     -2.04775049396181
