20
Coordinates from ORCA-job opt
  C   1.01216999257452      1.13375992189023     -0.04883415217466
  N   1.61639304381295      1.23950812007193      1.16493407407054
  C   -0.45605668011398      1.05965026467509     -0.04076813967745
  C   1.76935877458915      1.12661952481709     -1.19203493465517
  C   2.99096027490746      1.32830466070528      1.39388080145849
  H   1.01694135503446      1.21768158255135      1.98683049211451
  C   3.76563400252270      1.31793485896288      0.17185865460060
  O   3.43291491525979      1.40827981547021      2.53695494574804
  C   3.17387914664948      1.21936305693392     -1.05799025873920
  H   4.84029853272266      1.38958075789913      0.28288372915382
  H   3.79348597836663      1.21271569908137     -1.94848841832737
  H   1.27670066012978      1.05364584334937     -2.15043036920235
  N   -1.03705418259314      0.90347754322760      1.15852473043475
  N   -1.08551843504285      1.13153950705143     -1.22295407061238
  C   -2.37028195200016      0.82281969064057      1.16984347227284
  C   -3.11992365798831      0.88770622065942      0.00347103227344
  H   -2.83884442384081      0.69991514696868      2.14116925671585
  C   -2.41557814081300      1.04399510613233     -1.18622638803595
  H   -4.19981994825887      0.81991693177887      0.01887431342880
  H   -2.92796025591845      1.10278574713326     -2.14159677084716
