20
Coordinates from ORCA-job opt
  C   1.01061188912937      1.15651217742980     -0.04744492588487
  N   1.62643792016065      1.08493838903254      1.16306419044797
  C   -0.45519408877562      1.04423131208447     -0.03954813849974
  C   1.75827684259323      1.29122054571263     -1.18882261002239
  C   3.00201592737180      1.16035764185243      1.39112391697120
  H   1.03144552357012      1.01493452718563      1.98542954780357
  C   3.76640536736032      1.30417850899505      0.17107128186484
  O   3.45316582868949      1.10071569171220      2.53187441124702
  C   3.16393053487089      1.36814782215797     -1.05583140683844
  H   4.84196425361522      1.36213478238914      0.28135627698481
  H   3.77570464828864      1.47935067261117     -1.94481841785296
  H   1.25835855359241      1.33139739597501     -2.14540805423121
  N   -1.05292528691881      1.14986459621274      1.15709619206307
  N   -1.06894278558720      0.87684458187867     -1.22027723460944
  C   -2.38597402653956      1.06579733413069      1.16754283936003
  C   -3.12003436845549      0.89002973561812      0.00261838916606
  H   -2.86783376015187      1.14683236205299      2.13675319134222
  C   -2.39995488169191      0.80175319967533     -1.18456162732287
  H   -4.20011364004143      0.82504088517796      0.01732985348849
  H   -2.89964445108024      0.66491883811544     -2.13864767547737
