20
Coordinates from ORCA-job opt
  C   1.00738187679100      1.17676782246872     -0.02220143739017
  N   1.64890324698850      0.90627769255691      1.14724163166985
  C   -0.45751929293237      1.03308954620612     -0.01374139488404
  C   1.73136830236674      1.47298202080046     -1.14568395128186
  C   3.03007404325792      0.95659829969849      1.35781120183332
  H   1.08477146628531      0.74213861095843      1.97666198266407
  C   3.76778842639975      1.28835703897645      0.15893150726755
  O   3.50171656968703      0.72722554828805      2.46832454669407
  C   3.13997014874202      1.53764450068966     -1.03061497814283
  H   4.84510647273096      1.33603405008413      0.25502771034433
  H   3.73327765495069      1.78735998935407     -1.90384894441563
  H   1.21432523053088      1.64456505282169     -2.07865353877651
  N   -1.08490921520492      1.44108952848635      1.10023972378774
  N   -1.03737115737212      0.58782158566135     -1.13736307762741
  C   -2.41848285876693      1.35991713050531      1.09280555697510
  C   -3.12177122059922      0.90395841388790     -0.01463521383787
  H   -2.92692784322763      1.68089733723083      1.99650194298477
  C   -2.37165014959348      0.52704178661092     -1.12270035513123
  H   -4.20247777635293      0.84698764407646     -0.01557911285071
  H   -2.84587192468120      0.16244640063769     -2.02862579988255
