20
Coordinates from ORCA-job opt
  C   1.00649905329913      1.18304876453781     -0.00550518010406
  N   1.66175437158166      0.82641867640343      1.13311931624021
  C   -0.46059286466544      1.03636953292425      0.00332535029388
  C   1.71783182962605      1.55720592983114     -1.11212786680581
  C   3.04621242557240      0.86155001802420      1.33110061491780
  H   1.11518811978231      0.59568896561779      1.95779571647366
  C   3.76973280289074      1.28099566371680      0.15187085007328
  O   3.52851813265567      0.55005968986607      2.41675693314840
  C   3.12818244218112      1.61531159714719     -1.00876768708152
  H   4.84799669444547      1.32301782777428      0.23886097184395
  H   3.71121291192097      1.92820879466565     -1.86846863620905
  H   1.19233908631649      1.79504202497615     -2.02585986597438
  N   -1.10313814600460      1.57888217864553      1.04895586121918
  N   -1.02257089160313      0.45883904471621     -1.06743656691774
  C   -2.43696210070727      1.49875462174598      1.02917957459673
  C   -3.12386535918262      0.91188838465989     -0.02602738830312
  H   -2.95902139447567      1.92928784951533      1.87790074444315
  C   -2.35819561132849      0.40135903077683     -1.06716089881418
  H   -4.20470808463801      0.85757077344684     -0.03796755427272
  H   -2.81871641766680     -0.07029636899138     -1.92964528876767
