20
Coordinates from ORCA-job opt
  C   1.01575725556697      1.07241414733576     -0.05057102403369
  N   1.56376484956196      2.11347697789837      0.63219520093893
  C   -0.45314940886316      0.99887336768389     -0.05848819833464
  C   1.82580642633139      0.12728664650182     -0.62284169764367
  C   2.92925023844799      2.36517607238226      0.78882417403870
  H   0.93252650098943      2.82011078352135      1.00155847516207
  C   3.76056033517799      1.35707633416231      0.16795933047144
  O   3.31697683646351      3.35462278556276      1.40451836885152
  C   3.22546351799665      0.29391047337565     -0.50683543913965
  H   4.83072953293100      1.49190068236466      0.26159013233660
  H   3.88674913711806     -0.43654441738227     -0.96070995777961
  H   1.37847452321969     -0.71199558422150     -1.13528152480131
  N   -1.00778526966006     -0.21611358484224     -0.17827148925584
  N   -1.10613141345284      2.15524814733703      0.13483615633388
  C   -2.34168132828701     -0.25675571023048     -0.15017168478768
  C   -3.11824927990373      0.88417422781500      0.02093754330803
  H   -2.79479839837816     -1.23786007975655     -0.25346047503472
  C   -2.43974026962215      2.08648137129493      0.16968035647076
  H   -4.19889503354630      0.83566083415929      0.05030447624342
  H   -2.96792875209123      3.02205752503797      0.32412727665547
