20
Coordinates from ORCA-job opt
  C   1.00773338703041      1.19460475360929      0.00370332448816
  N   1.67615327856496      0.63584562943655      1.04952424410076
  C   -0.46983751068165      1.07257709894793      0.01137037770051
  C   1.70621561219406      1.78622485291882     -1.00884742478035
  C   3.06545918505962      0.62281974873259      1.22927594431842
  H   1.15233166525973      0.20733124951075      1.80596720784134
  C   3.77520713542611      1.26594158189942      0.14803429025656
  O   3.55593384993970      0.09668220831778      2.22464272160179
  C   3.11958169244212      1.82015295733376     -0.91542116491225
  H   4.85462811637375      1.28755648619822      0.22621948270939
  H   3.69195726083903      2.29446816029360     -1.70561771571081
  H   1.17557732333385      2.21218184562645     -1.84868142553822
  N   -1.13484381765183      1.91577277901965      0.81319793396196
  N   -1.00261313536053      0.16060321946857     -0.81198506679636
  C   -2.46911851369328      1.82459379796834      0.78496222275603
  C   -3.12899567257153      0.91679014434652     -0.03357622762861
  H   -3.01240891854555      2.50439862810680      1.43371474076243
  C   -2.33909322542297      0.09219726466224     -0.82406765150051
  H   -4.20943897343827      0.85459116871672     -0.05394959882892
  H   -2.77672873909772     -0.64613357511400     -1.48856521480133
