20
Coordinates from ORCA-job opt
  C   1.01701642578225      1.04417515010856      0.00985837617666
  N   1.56702834508126      2.18246913925797      0.51092531741734
  C   -0.45169336143135      0.97982559405129      0.00104616428992
  C   1.82699692425736      0.03480221963003     -0.44380847305949
  C   2.93161562551525      2.45818484431357      0.61762237661565
  H   0.92705558676359      2.90710317745183      0.82843871357458
  C   3.76262543301366      1.37762473721634      0.13235408326151
  O   3.32177862766695      3.52524842367426      1.08390372123301
  C   3.22628323704014      0.22463537294829     -0.37302247378610
  H   4.83297924658212      1.53060871710157      0.18992723511755
  H   3.88675569636335     -0.56001464662211     -0.72665193891968
  H   1.37771511557543     -0.86563079029989     -0.83607367880821
  N   -1.01848337653271     -0.15958946982662     -0.42272794808463
  N   -1.09799675549080      2.07455969328847      0.42990273421310
  C   -2.35138431584526     -0.19004904617049     -0.41703151658546
  C   -3.12012648647354      0.89004285907016      0.00552478764822
  H   -2.81287780697453     -1.11095422004740     -0.76012992645963
  C   -2.43253106501814      2.01925743007495      0.42797679982328
  H   -4.20155075812168      0.85112280057866      0.00632188795313
  H   -2.95350633775338      2.90577901420056      0.77554475837925
