20
Coordinates from ORCA-job opt
  C   1.00839892077902      1.17084411677860     -0.03318631606762
  N   1.64024465022138      0.96301254581583      1.15386199468140
  C   -0.45613225540175      1.03458618084401     -0.02486678229911
  C   1.74127590022152      1.41436578585091     -1.16448504427842
  C   3.01918104120532      1.02255749659880      1.37221567680132
  H   1.06398134637911      0.83719297874296      1.98210257601088
  C   3.76699878736314      1.29331140168145      0.16389558190944
  O   3.48315735527024      0.84965609270745      2.49613401632691
  C   3.14874793213477      1.48303264028899     -1.04172449953186
  H   4.84364157058523      1.34438774969004      0.26601667338992
  H   3.74906354321665      1.68834173363769     -1.92170690632103
  H   1.23065741067259      1.54223352999160     -2.10781355242114
  N   -1.07275052599400      1.34516979014995      1.12594279205788
  N   -1.04850850252774      0.68090544748619     -1.17450121886367
  C   -2.40613478652676      1.26292842918333      1.12632355881171
  C   -3.12083373233261      0.89886262660115     -0.00722084005650
  H   -2.90488632362953      1.50571682282300      2.05931244070298
  C   -2.38168619010528      0.61630439132367     -1.15072627300768
  H   -4.20133857125127      0.83932926704145     -0.00126522308788
  H   -2.86537957028005      0.32646197276292     -2.07840965475752
