20
Coordinates from ORCA-job opt
  C   1.01194517347435      1.11871735635612     -0.03777149774816
  N   1.61406261909790      1.35744323490391      1.15871540920130
  C   -0.45780703392880      1.07005624849957     -0.02897527993623
  C   1.76902865331676      1.00553651893431     -1.17406816710868
  C   2.98966483217732      1.46039195125500      1.38027760106067
  H   1.02414266130020      1.38569712258265      1.98661981475884
  C   3.76485513229938      1.32709142284420      0.16608181525822
  O   3.42975534520080      1.64854455029884      2.51132955061347
  C   3.17415885651260      1.10636056688070     -1.04810847633609
  H   4.83963737153038      1.40540803488525      0.27065592328461
  H   3.79483109424910      1.00818834888888     -1.93243197476976
  H   1.27743848898912      0.84794483195046     -2.12293694193378
  N   -1.03174649992121      0.71672376651528      1.13150229104171
  N   -1.09018540056478      1.32153126884575     -1.18430183374534
  C   -2.36514277400875      0.63558689207391      1.13491276843197
  C   -3.11965023353628      0.88189845443621     -0.00437848159190
  H   -2.82988926990275      0.35759113147157      2.07559212605162
  C   -2.42096498728553      1.22422472104681     -1.15718467187094
  H   -4.19935921355796      0.80988233672831      0.00413885332258
  H   -2.93707681544189      1.43038024060226     -2.08976982798411
