20
Coordinates from ORCA-job opt
  C   1.01288881919495      1.06018804358858      0.09475844302060
  N   1.59673445004402      2.13392253538864     -0.50401863865812
  C   -0.45873405582060      1.02891857403753      0.09182557870961
  C   1.78743947004531      0.12972598815272      0.73383264673277
  C   2.97032238927291      2.37710459464928     -0.59689871606557
  H   1.00170579706599      2.77962452593525     -1.01600708172206
  C   3.76401436197679      1.36986089818678      0.07176421450916
  O   3.39124849142563      3.36435841374947     -1.19393309078280
  C   3.19174994450836      0.29822844856729      0.70060078675187
  H   4.83769029092144      1.50567752258039      0.04184237448197
  H   3.82637265852310     -0.43582088156739      1.18571396371612
  H   1.31141181337423     -0.69623034791689      1.24216425359919
  N   -1.05686931898093      1.46524871859301     -1.02749849198407
  N   -1.06379908647730      0.49792314634702      1.16371892417587
  C   -2.39060928398161      1.39114424498738     -1.05416063819506
  C   -3.11981648860135      0.86739416864319      0.00550089163946
  H   -2.87646758506225      1.75220678587175     -1.95515302778262
  C   -2.39634196928929      0.42491446366089      1.10702211541326
  H   -4.19975072634701      0.80470147155167     -0.02588593462952
  H   -2.89148797179239      0.00010768499343      1.97471242706991
