20
Coordinates from ORCA-job opt
  C   1.00987180472019      1.18933492253901     -0.07990563832587
  N   1.65933083038923      0.38766575629106      0.80787713492174
  C   -0.46589119664011      1.10384247035022     -0.08330924670133
  C   1.71807505478350      2.08222602906565     -0.83349523345026
  C   3.04395592563486      0.33318239689039      1.00861984706103
  H   1.12654759113859     -0.29708139610181      1.33561222975790
  C   3.76648646278293      1.27559982970105      0.18515378652259
  O   3.52287229139721     -0.45420690630092      1.82025606371616
  C   3.12699120203843      2.10436360908210     -0.69434174186507
  H   4.84308351914593      1.28652847444714      0.29766183097447
  H   3.70960297313144      2.79469289150080     -1.29511223009929
  H   1.19388020045648      2.74358593872933     -1.50879698058606
  N   -1.13797243826714      2.21051166331421      0.26066463139174
  N   -0.98990120389618     -0.10569283129080     -0.33164290340915
  C   -2.47075438769959      2.09938945563280      0.29292001152051
  C   -3.12215200769532      0.90378127381454      0.01784446722881
  H   -3.02089500101347      2.99536771729018      0.56286073362623
  C   -2.32316767705261     -0.19180406384206     -0.28428508413323
  H   -4.20108929695269      0.82554218734838      0.05250956764850
  H   -2.75117664640170     -1.16762641846128     -0.49119024579942
