20
Coordinates from ORCA-job opt
  C   1.01215452329498      1.12427119608656     -0.04378163283377
  N   1.61438154735570      1.30784874010215      1.16202236073628
  C   -0.45693621943324      1.06612271271860     -0.03537268621788
  C   1.77005465838563      1.05589021746265     -1.18384030433433
  C   2.98927346107924      1.40510231361855      1.38757370606935
  H   1.01937102251275      1.31169885005593      1.98709732273109
  C   3.76511251913692      1.32343718599446      0.16910888889256
  O   3.42972108936654      1.54596697765858      2.52536327220779
  C   3.17482037735903      1.15375349934510     -1.05356402657533
  H   4.83975506229554      1.39913090124785      0.27737627065461
  H   3.79548278999205      1.09407889755904     -1.94133627850219
  H   1.27888254124294      0.93356536492543     -2.13802981383189
  N   -1.03325147398551      0.79499548537872      1.14574646823210
  N   -1.08899453975741      1.24255125658358     -1.20492681360985
  C   -2.36659106778472      0.71479377772762      1.15357486642676
  C   -3.11974283122265      0.88531696069092     -0.00008482497204
  H   -2.83239834453351      0.50186038780364      2.11056332617031
  C   -2.41935651253377      1.14944605905789     -1.17260226335291
  H   -4.19955613451727      0.81546958175198      0.01230269102434
  H   -2.93448246825324      1.29389963423074     -2.11728952891497
