20
Coordinates from ORCA-job opt
  C   1.01740883739711      1.02754671215564      0.05083319933491
  N   1.56473804270938      2.21705443171184      0.41820348865282
  C   -0.45128731296778      0.96268048297423      0.03878300574137
  C   1.82857353203964     -0.01636582238987     -0.31232191017676
  C   2.92906533707911      2.50590830523726      0.49221640729744
  H   0.92647356610690      2.95462315919052      0.70763149380706
  C   3.76163952671490      1.38733141082575      0.10573915276119
  O   3.31717373323238      3.61388028967630      0.85299025782872
  C   3.22746316218450      0.18657002492223     -0.27525196998202
  H   4.83154869389871      1.55052431734477      0.13674257635381
  H   3.88933796159686     -0.62630568701617     -0.55460408022447
  H   1.38088197634285     -0.95087526045059     -0.61712550157644
  N   -1.01838677724098     -0.08315761238007     -0.58044549794899
  N   -1.09660462714072      1.98522504541785      0.62051832972430
  C   -2.35186091501342     -0.10809259742042     -0.58856973010180
  C   -3.11981836451804      0.89465726723799     -0.00511647173992
  H   -2.81396217245725     -0.95532136082971     -1.08585950538812
  C   -2.43136385093898      1.94076265132657      0.59376172775303
  H   -4.20132764478377      0.86422399623346     -0.02332421870754
  H   -2.95199270424140      2.76833124623239      1.06509824659139
