20
Coordinates from ORCA-job opt
  C   1.01740592975646      1.02418405632351      0.05991422152824
  N   1.56386126208312      2.22242034993599      0.39939211907179
  C   -0.45130134129879      0.95848986451430      0.04682838890017
  C   1.82897473182108     -0.02526362838120     -0.28523236275438
  C   2.92814036222523      2.51394478707054      0.46590926104954
  H   0.92668535639351      2.96335694736495      0.68223207746583
  C   3.76118770652654      1.38887648800106      0.10004681931144
  O   3.31543692267960      3.62930871453517      0.80410008041049
  C   3.22776353945915      0.17989985566033     -0.25506768154229
  H   4.83094063832367      1.55397654901099      0.12556560297329
  H   3.89004338878380     -0.63773697566650     -0.51913264300157
  H   1.38203093090067     -0.96586357363442     -0.57201652472582
  N   -1.01760423736099     -0.06424819194552     -0.61045162074886
  N   -1.09682535540737      1.96357984494283      0.65811624961171
  C   -2.35128951617144     -0.08790983404589     -0.62192263984961
  C   -3.11956200914375      0.89567430505891     -0.00735879033907
  H   -2.81293970380123     -0.91695831042954     -1.14934086682862
  C   -2.43155760416987      1.92154376640537      0.62622669888020
  H   -4.20105838565724      0.86726555875212     -0.02953323275053
  H   -2.95263261594214      2.73465742652700      1.12162384333804
