20
Coordinates from ORCA-job opt
  C   1.01740530556243      1.03141268629347      0.10157556474976
  N   1.56897418663828      2.26743943477868     -0.04173893964952
  C   -0.46308227453343      0.95914408552528      0.06664736398458
  C   1.82561030495863     -0.06229933222906      0.21767502323864
  C   2.93825360464707      2.56337002196072     -0.05856678704039
  H   0.96431663052075      3.07937054204519     -0.11525611751400
  C   3.76641655957809      1.38772649961884      0.07749418262717
  O   3.31897340959541      3.72442580552664     -0.18150648396213
  C   3.22823971819925      0.13850390056637      0.21030281266881
  H   4.83670621068290      1.54947810285419      0.07076097210334
  H   3.88726945548021     -0.71741461693382      0.31058877943932
  H   1.38675216577022     -1.04550149698773      0.31282092165541
  N   -1.01951230880391      0.56339353503014     -1.08548154502087
  N   -1.10643872542004      1.34982007061815      1.17553525544477
  C   -2.35689393692367      0.51826241641327     -1.10505440836734
  C   -3.12498448169379      0.87542215561839     -0.00446269326961
  H   -2.81347263605536      0.19326436389902     -2.03463288337735
  C   -2.44238726054515      1.29891278218795      1.12877350397712
  H   -4.20629956455728      0.83488952850788     -0.03170115736754
  H   -2.96814636310059      1.60957951470643      2.02612663567984
