20
Coordinates from ORCA-job opt
  C   1.00840075461104      1.20009505886269     -0.07364836950891
  N   1.66905282411242      0.28106322013819      0.68138579645433
  C   -0.46079262030645      1.10422601109203     -0.08207391930146
  C   1.70463766818204      2.20255896869738     -0.69348708277690
  C   3.05381421557606      0.20759631879066      0.86078138047865
  H   1.13237655658057     -0.48153156160934      1.08587805699042
  C   3.76415168082997      1.26938588144545      0.18300620357833
  O   3.54870210037718     -0.68794454221637      1.54007485528563
  C   3.11297715659243      2.21538795247715     -0.56030387086923
  H   4.84146299127661      1.27193116432121      0.29026711427487
  H   3.68664586280131      2.99187746540739     -1.05513043252957
  H   1.16642553840338      2.95147591072398     -1.25652772167380
  N   -1.14990982651228      2.25315386546065     -0.03360091276518
  N   -0.97348502053083     -0.13504439209292     -0.03265436092866
  C   -2.48029067143422      2.13656771432375      0.00225507266826
  C   -3.11870631476887      0.90197328191761      0.02333857190424
  H   -3.04296900391280      3.06443470883682      0.03297384173441
  C   -2.30569443078680     -0.22404061226209      0.01479346511795
  H   -4.19726692833738      0.82194653222435      0.06173958347862
  H   -2.72183253275339     -1.22591394653861      0.05083272838802
