20
Coordinates from ORCA-job opt
  C   1.01054807892112      1.10487281407772      0.19051786139358
  N   1.65524516080176      0.93549958464934     -0.99532999375444
  C   -0.45737585576962      1.01509996512753      0.15367125145804
  C   1.72247793899705      1.42173046359454      1.31692292914282
  C   3.03648898750514      1.00525853021864     -1.19658505896474
  H   1.10156836710421      0.65123920844640     -1.79941242087510
  C   3.76368722608356      1.33057892430102      0.01079665930473
  O   3.51756654994629      0.80541396683271     -2.30880545334809
  C   3.12890444975573      1.52413800853078      1.20722674090309
  H   4.83964890880718      1.40729773372001     -0.08193082907690
  H   3.71459168582368      1.76252602148682      2.08870783483383
  H   1.19628985891815      1.58874865463237      2.24561553087538
  N   -1.14134997999030      1.77129260826711      1.02445911606893
  N   -0.98014346881329      0.24523291265409     -0.81331906594514
  C   -2.47211707492187      1.69795506194187      0.94483363451644
  C   -3.11925769971522      0.91085940096627     -0.00131621651442
  H   -3.02981109310125      2.30309346423887      1.65286881855704
  C   -2.31355202928545      0.19761854412582     -0.87908217007548
  H   -4.19892819121612      0.86765701441643     -0.06047207286432
  H   -2.73678181985077     -0.42691288222833     -1.65946609563525
