20
Coordinates from ORCA-job opt
  C   1.01209515000556      1.13693917608633     -0.04966027507066
  N   1.61738579202359      1.21776764234498      1.16543640597209
  C   -0.45585774468421      1.05741779615836     -0.04167143875297
  C   1.76856530772397      1.14968650721549     -1.19339160037521
  C   2.99195892729945      1.30453978161917      1.39489578906073
  H   1.01733682645080      1.18893668874397      1.98673459162631
  C   3.76581903239726      1.31607416077819      0.17232949835720
  O   3.43473553366342      1.36493642282229      2.53883161748347
  C   3.17311338176152      1.24033790640858     -1.05868677270944
  H   4.84056149523693      1.38591990903285      0.28377427814930
  H   3.79208380822013      1.25034189878390     -1.94960020880134
  H   1.27511626769889      1.09261010940422     -2.15244245867155
  N   -1.03871659314159      0.93804585866295      1.16089813780512
  N   -1.08391981653417      1.09577621513415     -1.22619282369205
  C   -2.37190128455919      0.85696449470498      1.17276183791861
  C   -3.11999181903095      0.88806553291885      0.00405547866522
  H   -2.84172452778520      0.76273856071798      2.14668139265862
  C   -2.41396707408553      1.01001015777366     -1.18871978157830
  H   -4.19990457155399      0.82072481413471      0.01993082981275
  H   -2.92509109110670      1.04136636655438     -2.14606549785789
