20
Coordinates from ORCA-job opt
  C   1.00871046891778      1.11515309632428      0.13955244463678
  N   1.63055198929530      1.72781031561762     -0.90479471406249
  C   -0.45794689263246      1.00649368712038      0.05875343297135
  C   1.75193101508595      0.55697332897126      1.14388821968179
  C   3.00911872692878      1.91633389512269     -1.04504488852677
  H   1.05617672837637      2.17868971668475     -1.61151366708015
  C   3.76716717243547      1.33362365625214      0.03973370921821
  O   3.46128642846302      2.51807707077969     -2.01547461954725
  C   3.15928491094830      0.69050589981468      1.08273322320822
  H   4.84319794090622      1.44004158593377     -0.01410326800844
  H   3.76754995882082      0.27185383342333      1.87750128728849
  H   1.25127986330954      0.03393868463216      1.94586228094123
  N   -1.10970520817824      2.10289960804349     -0.35838891652354
  N   -1.01194162066183     -0.13657486307022      0.48657981057581
  C   -2.44350135723442      2.02612284931737     -0.38008682641394
  C   -3.12199086707148      0.88615746130910      0.03155427989314
  H   -2.97239776598309      2.90871430280388     -0.72581552944129
  C   -2.34720738428951     -0.18308590747805      0.46539293392010
  H   -4.20288334375093      0.83407314932137      0.01760264680887
  H   -2.80097776368559     -1.10860037092372      0.80596916045988
