20
Coordinates from ORCA-job opt
  C   1.01022079949599      1.15953734238831     -0.04573332082129
  N   1.62855879872402      1.06221185243483      1.16180766648303
  C   -0.45520894335698      1.04202039661167     -0.03778489362465
  C   1.75561704050447      1.31444494289612     -1.18581167911716
  C   3.00457901641822      1.13486418127911      1.38871858330948
  H   1.03605590678291      0.98397459063374      1.98512115187007
  C   3.76645354060195      1.30225316411176      0.17014038028170
  O   3.45773342496708      1.05502696159165      2.52745542270992
  C   3.16156851587210      1.38970637476165     -1.05409070320810
  H   4.84216638867487      1.35889008034423      0.27952033720140
  H   3.77150922122629      1.51845641089349     -1.94196355312062
  H   1.25423857933210      1.37091227440410     -2.14082969569501
  N   -1.05607550813368      1.18582189596835      1.15336471125189
  N   -1.06556036875319      0.84012198414192     -1.21480854804266
  C   -2.38915242230562      1.10174063968117      1.16264307677757
  C   -3.12007561453086      0.89104427012754      0.00144865943140
  H   -2.87377877597609      1.21256072777451      2.12751765194730
  C   -2.39691392134011      0.76699093335562     -1.18053570006063
  H   -4.20021564145739      0.82680349625263      0.01518683702843
  H   -2.89402103674610      0.60181748034759     -2.13146638460208
