20
Coordinates from ORCA-job opt
  C   1.01083366930474      1.12499929331736      0.15057583202890
  N   1.64795301316113      1.40647365056574     -1.01876001457175
  C   -0.46980774637700      1.04197708237312      0.10040417619769
  C   1.73800057582481      0.93104671407407      1.28882224400395
  C   3.03248498369687      1.52859486411030     -1.19640645254135
  H   1.10436179746430      1.55127660334348     -1.86347876904131
  C   3.77365109903587      1.31933077131196      0.02543813516072
  O   3.49339125662420      1.78798642417202     -2.30474112878342
  C   3.14898563191411      1.03477666583288      1.20711575324070
  H   4.85078001356569      1.40017361475164     -0.04489914091934
  H   3.74431412020591      0.88486820389979      2.10159689600789
  H   1.23220274286139      0.70566814985971      2.21710864295953
  N   -1.14131018015777      2.18424698276619      0.29720505252692
  N   -0.99512460785942     -0.16668828626930     -0.13904982019286
  C   -2.47596338070141      2.09344095991524      0.26444986029037
  C   -3.12849372436687      0.88848553681014      0.03773350503616
  H   -3.02531917882738      3.01571576576352      0.42497170387193
  C   -2.33151924438500     -0.23051558963928     -0.16647871511311
  H   -4.20886812864727      0.82522007948625      0.01677155000633
  H   -2.76285571233691     -1.20787748644484     -0.35848031016793
