20
Coordinates from ORCA-job opt
  C   1.01619901948602      1.06353862980671     -0.03278235228049
  N   1.56537933940286      2.13639386684879      0.59746385559054
  C   -0.45248015129851      0.99417761349218     -0.04087199439028
  C   1.82578565937627      0.09739516638371     -0.57095441451930
  C   2.93057903519929      2.39613925883358      0.73855745884800
  H   0.93039202633355      2.84987580704950      0.94746204592157
  C   3.76142798170130      1.36370944049092      0.15788629806140
  O   3.31986926784765      3.41146382272365      1.30951165097599
  C   3.22539863471064      0.27115767537999     -0.46757784776588
  H   4.83175177813912      1.50406305849843      0.24135141199023
  H   3.88611331534819     -0.47721304724710     -0.89215503429282
  H   1.37724880831435     -0.76174416455753     -1.04795835164205
  N   -1.01203176546929     -0.20597363569652     -0.25323911714920
  N   -1.10276718810890      2.13740302085865      0.22535938029774
  C   -2.34553105763617     -0.24347022211854     -0.23201069835638
  C   -3.11896541283132      0.88565393007415      0.01673216152940
  H   -2.80206030591231     -1.21246494906986     -0.40870765892431
  C   -2.43673389114552      2.07212052197146      0.24977300028708
  H   -4.19987922424289      0.83951990788512      0.03790498029941
  H   -2.96199686921435      2.99745429839271      0.46415522551935
