20
Coordinates from ORCA-job opt
  C   1.01108464281017      1.09075833342260      0.14697835556341
  N   1.61336693739999      1.82087550742211     -0.83041766847705
  C   -0.45447879386134      0.99185816248963      0.07655036261178
  C   1.77202465338595      0.44337603787447      1.08453901697108
  C   2.98718232538952      2.03455716868882     -0.96803639309727
  H   1.01468815449541      2.32712856243392     -1.47812212929328
  C   3.76530880817808      1.34829866596828      0.04019460036918
  O   3.42401092727112      2.73894579154937     -1.87433502549100
  C   3.17677149179790      0.59413334238306      1.01833560506565
  H   4.83977510094396      1.46855702004239     -0.01713173033901
  H   3.79907929716908      0.10040244529177      1.75716077952064
  H   1.28403165397968     -0.15933892886564      1.83649999227992
  N   -1.08735596103185      2.00239656574231     -0.53927176063134
  N   -1.03152524176601     -0.05767146019580      0.67939918046511
  C   -2.42109599643384      1.93552851461915     -0.57401237174549
  C   -3.12034703703785      0.88933163636881      0.01289081281451
  H   -2.93265761443322      2.74878417145119     -1.07905547870160
  C   -2.36497377926238     -0.09622707684573      0.63930573443449
  H   -4.20116794312860      0.84368326837389     -0.01490787519955
  H   -2.83602162586579     -0.94617772821463      1.12333499287983
