19
Coordinates from ORCA-job mp2_opt
  C   0.57828294704041     -0.13715399415776      0.10274255016429
  C   1.30072542759371     -1.19368840647680     -0.45197608877996
  C   1.22341373530707      1.00991010635575      0.56128850556544
  C   -1.57668811737347     -1.31977072305548      0.49297528224431
  C   -1.71415150251873      0.78771290613962     -0.27345016737583
  H   -1.14760067021898     -2.23135240705286      0.87651699308121
  C   2.68912898581114     -1.11691827013002     -0.50578709556535
  H   0.77761665665826     -2.05839622796135     -0.84476313910534
  C   3.34614394680335      0.02115342856158     -0.04217151301522
  H   3.25488141174231     -1.93914622268814     -0.92806784150592
  C   2.61059240802137      1.08303126974918      0.48137239029068
  H   4.42654052366994      0.08313842436382     -0.09616875215117
  H   3.11794774391524      1.97375513154894      0.83281136629897
  H   0.63845514062748      1.82850999581524      0.96046043162065
  N   -2.92545440089489      0.15371937174744     -0.14151008078850
  H   -3.81714637486776      0.56514012174832     -0.36465679767510
  N   -0.83105375455000     -0.21598225812599      0.16709064061055
  N   -2.85661442644231     -1.12556979314186      0.32734240790124
  O   -1.45792268032412      1.91415454676038     -0.65868009181495
