19
Coordinates from ORCA-job mp2_opt
  C   0.57903506936630     -0.10181855159037      0.09578278868998
  C   1.26576030739548      0.89196112479013      0.78844872941762
  C   1.26091725568816     -1.05190030190140     -0.66210518652027
  C   -1.56246273278932     -1.25201092777752      0.63760561644660
  C   -1.72281048591464      0.75934025018437     -0.35060770384513
  H   -1.11802681384444     -2.11916519063573      1.09943771874665
  C   2.65363036478170      0.94334131557148      0.70300890710225
  H   0.70876849211639      1.61774494436006      1.36888233081314
  C   3.34738121278072     -0.00575397024892     -0.04637106131029
  H   3.19475539497344      1.71914306515899      1.23180908012338
  C   2.65070499867505     -1.00310946622836     -0.72601719918984
  H   4.42871624874171      0.03383887792034     -0.10321423486060
  H   3.18747621517807     -1.73949986455706     -1.31261906930430
  H   0.70142522300856     -1.80866145605377     -1.20093280819264
  N   -2.92920405176730      0.13684845789708     -0.13533013431934
  H   -3.82494580884613      0.50745234506831     -0.40798998771725
  N   -0.83146519519525     -0.17705799763392      0.20224158424066
  N   -2.84522142918473     -1.08869324282091      0.45984243657764
  O   -1.47343426516377      1.83263758849718     -0.86761280689826
