19
Coordinates from ORCA-job mp2_opt
  C   0.58458077913708     -0.13419269104843      0.02362821693280
  C   1.19200725717884      1.09010801160512      0.30629926945082
  C   1.35791249868999     -1.25480847126252     -0.28881248248852
  C   -1.54612069547709     -1.38892846230561      0.29357761063200
  C   -1.74413213771212      0.79550560092279     -0.18150654128277
  H   -1.09755968721844     -2.33647428163184      0.53990158059572
  C   2.58160321590069      1.17389695554510      0.29759791613566
  H   0.58019835438392      1.95477680462135      0.52216064997792
  C   3.36287086111528      0.05666966040475      0.01291535003811
  H   3.05337187304763      2.12432175569282      0.51838078619486
  C   2.74519671212293     -1.15717915506057     -0.28068419077523
  H   4.44370426095231      0.13193527754425      0.01127562139772
  H   3.34152112454561     -2.02979817318548     -0.52036229267747
  H   0.88297805393624     -2.19032583275257     -0.55902399303679
  N   -2.94043053862582      0.13503301936800     -0.05163429882647
  H   -3.84586215876342      0.56726572120427     -0.13874233582237
  N   -0.82456607458390     -0.24950749803602      0.03361721792963
  N   -2.83444282290235     -1.18925493550984      0.24906528355014
  O   -1.53415587572738      1.97031269388440     -0.42858536792574
