19
Coordinates from ORCA-job mp2_opt
  C   0.57733795755312     -0.13697325249758     -0.11850644839649
  C   1.28658454950304     -1.17327209102905      0.48821871130476
  C   1.23359469803842      0.98763860811634     -0.61407906980575
  C   -1.58272466513960     -1.30213279911883     -0.53139074918462
  C   -1.70863284351867      0.78470323408818      0.29181300998940
  H   -1.15775712617310     -2.20495759860269     -0.93976318111901
  C   2.67488977295395     -1.10231026717346      0.55373732571700
  H   0.75241280398973     -2.01833675693513      0.90818576909000
  C   3.34327634001683      0.01254457180611      0.05150819603798
  H   3.23154756785971     -1.90951283865422      1.01531163760937
  C   2.62024120768102      1.05692498829479     -0.52241824616454
  H   4.42344440748178      0.07036660748448      0.11422330728500
  H   3.13699356414355      1.92998016727808     -0.90320894385748
  H   0.65681141489717      1.79244844470922     -1.05206513742162
  N   -2.92248663716579      0.15625404793132      0.15528816233838
  H   -3.81076432594673      0.56073079050477      0.40333222875720
  N   -0.83270494917955     -0.20627236174601     -0.18965123069674
  N   -2.86048768936639     -1.11146429366508     -0.34581058073610
  O   -1.44469904762852      1.89875079920877      0.70613523925326
