19
Coordinates from ORCA-job mp2_opt
  C   0.57699082247315     -0.13374941373628      0.13764600382903
  C   1.25369065043776     -1.07143293968255     -0.64051903666780
  C   1.26335265084581      0.88544784840856      0.79234449007564
  C   -1.59393149250397     -1.24556539903108      0.64181629663438
  C   -1.70036453983458      0.76500499689527     -0.35551223320430
  H   -1.17391396155110     -2.11820165294745      1.11601970930798
  C   2.64203159254023     -1.01412362831246     -0.72260520058905
  H   0.69193334112792     -1.83173132278301     -1.17196805980228
  C   3.34044138214258     -0.00594458360576     -0.06070564564286
  H   3.17557859728305     -1.74637907199192     -1.31728381333933
  C   2.64970669917826      0.94556746341440      0.68814843691597
  H   4.42049245774241      0.04188753752958     -0.13365149132239
  H   3.19127931997269      1.73625878393898      1.19389921875171
  H   0.70818041718202      1.61849748769896      1.36520773788903
  N   -2.92066774655101      0.16214164902664     -0.16520397769073
  H   -3.80405467502147      0.54645627216920     -0.45844341573565
  N   -0.83613929277540     -0.18407949291896      0.21939471764680
  N   -2.86972319334935     -1.06261622921919      0.43536933638568
  O   -1.42332802933899      1.83265669514708     -0.86997707344182
