19
Coordinates from ORCA-job mp2_opt
  C   0.58513171661804     -0.12910981321220     -0.01250647165201
  C   1.36490449153445     -1.26270850760908     -0.25612005117158
  C   1.18991254024023      1.10227553025199      0.24675764986236
  C   -1.53967139612492     -1.39827712144350      0.24654996151670
  C   -1.75125437193599      0.79800256203788     -0.15976212485134
  H   -1.08790061080263     -2.35236586591071      0.45756128894752
  C   2.75183996525532     -1.16355977588613     -0.23149355304038
  H   0.89875069755312     -2.21068173954195     -0.49520072813589
  C   3.36579940613719      0.05999510951864      0.02666895873473
  H   3.35083885833537     -2.04617806809257     -0.42335057721773
  C   2.57959685206743      1.18599395640535      0.25678216777808
  H   4.44655310107305      0.13526400116534      0.04016803571225
  H   3.04709701739357      2.14347407793753      0.45523061115160
  H   0.57574335114370      1.97347524359258      0.42548852822641
  N   -2.94334323501146      0.13120657498111     -0.02684858053720
  H   -3.85090402450619      0.56403926726532     -0.08350704918439
  N   -0.82431105637129     -0.25018633250200      0.00538347059439
  N   -2.82878464374979     -1.20051454565708      0.23273650145043
  O   -1.55176465884920      1.98104144669946     -0.37540203818395
