19
Coordinates from ORCA-job mp2_opt
  C   0.58703224608358     -0.13266409609927      0.02956474759776
  C   1.37668145667705     -1.28516660613633      0.09510033744324
  C   1.19171438715586      1.12355469010294     -0.06570046301590
  C   -1.54400430497341     -1.42024327459253     -0.08395866520941
  C   -1.75686147904816      0.80671087938198      0.06688032704871
  H   -1.10314288890832     -2.39762155172700     -0.16590706493007
  C   2.76268817999688     -1.17838746768625      0.06983145455582
  H   0.92878033111442     -2.26528987439702      0.19078421617252
  C   3.37411989598687      0.06944647540997     -0.02437206471234
  H   3.36287951207353     -2.07928958742598      0.12410280975362
  C   2.58145077468713      1.21120495502824     -0.08727377977280
  H   4.45447522753051      0.14869056320592     -0.04332523465837
  H   3.04214574587042      2.18956186083555     -0.16023306228120
  H   0.57722934647927      2.01026308277861     -0.11776740453997
  N   -2.94764036306772      0.12987561733187     -0.00585175725260
  H   -3.85466447522439      0.56743783770058     -0.00437624885741
  N   -0.82536974561791     -0.25269193475131      0.02905674293802
  N   -2.83231904642312     -1.22149966510964     -0.10515274341148
  O   -1.56966380039250      2.00874009614964      0.15307485313187
