19
Coordinates from ORCA-job mp2_opt
  C   0.58421759100725     -0.12965675882423      0.00111832950428
  C   1.35827729813657     -1.25339011578260     -0.29716112850328
  C   1.19140443792398      1.09054041486911      0.30200457389684
  C   -1.54248570203120     -1.38781060896269      0.29374949886888
  C   -1.74682054954733      0.79517268621707     -0.18505303272819
  H   -1.09095275965393     -2.33431819578832      0.53865983909509
  C   2.74569354265588     -1.15696000729167     -0.28060035561470
  H   0.88423127741146     -2.18887528399514     -0.56917125593934
  C   3.36279165256292      0.05550529522875      0.01952988657642
  H   3.34260428974845     -2.03099796378940     -0.51364868339284
  C   2.58101895756853      1.17311151905334      0.30176642980850
  H   4.44373002616427      0.12935835196739      0.02547042320759
  H   3.05255768166398      2.12136037420179      0.53231711000236
  H   0.57902214987688      1.95454334385277      0.51936085210265
  N   -2.94131645493422      0.13429237473191     -0.04218091806645
  H   -3.84793115942950      0.56531169505218     -0.12277045029388
  N   -0.82453216494505     -0.24814189943393      0.02584664835458
  N   -2.83134001015175     -1.18921107076966      0.26076622671259
  O   -1.53947510402718      1.96935284946331     -0.43717599359111
