19
Coordinates from ORCA-job mp2_opt
  C   0.58024831127385     -0.11267715336118      0.09556415297543
  C   1.28442683750335      0.54733749068760      1.09860915318707
  C   1.24384728295917     -0.71931725553001     -0.96830752909923
  C   -1.57035905657892     -1.30699472778471      0.51415248871170
  C   -1.71868871509448      0.79205613447343     -0.27440351276856
  H   -1.13052348743462     -2.22075480089599      0.88058436219339
  C   2.67272129353538      0.61280257244621      1.02505801574063
  H   0.73965159584499      1.01161742331664      1.91233525153250
  C   3.34744265850724      0.00647776027589     -0.03317968366809
  H   3.22788608035700      1.13259828980887      1.79692934537564
  C   2.63331257841848     -0.66002754242343     -1.02731423185682
  H   4.42867618207738      0.05553107684250     -0.08460352014279
  H   3.15722782422474     -1.12991777629650     -1.85132389348368
  H   0.66932379933904     -1.22250144922655     -1.73798422729371
  N   -2.92951767721553      0.15917217359095     -0.11700819911884
  H   -3.82463420090262      0.56174254107503     -0.34192191586463
  N   -0.83381882974359     -0.20116948486546      0.17763834984542
  N   -2.85244555546191     -1.11845825518871      0.35728078428217
  O   -1.46153592160895      1.91014698305542     -0.68077419054757
