19
Coordinates from ORCA-job mp2_opt
  C   0.58611981853610     -0.13365386853416      0.00940707568179
  C   1.19061223401458      1.11103086146143      0.19739289565508
  C   1.36920462413156     -1.27219305298129     -0.20264754709485
  C   -1.54259150939077     -1.40706595246064      0.20113384512140
  C   -1.75217794632071      0.80118251139693     -0.13194407476991
  H   -1.09506957573319     -2.36898616031646      0.38165113483506
  C   2.58049005663774      1.19646364102488      0.20373455419948
  H   0.57641209905164      1.98903592514091      0.33632386555435
  C   3.36895745647744      0.06396303083659      0.02064282150834
  H   3.04560368565706      2.16379654540660      0.35418782793027
  C   2.75577322210734     -1.16995089439239     -0.18441214903829
  H   4.44959267639287      0.14144876860347      0.02902105480472
  H   3.35509444811031     -2.05850109777443     -0.34561524975670
  H   0.90859450547879     -2.23125840240456     -0.40345290725737
  N   -2.94461984482278      0.13024570573708     -0.02804112043734
  H   -3.85159130191590      0.56565246099100     -0.07316074960283
  N   -0.82451440697299     -0.25230725538457     -0.00148882716936
  N   -2.83136877042439     -1.20881633553531      0.18745059793118
  O   -1.55644047101468      1.99191756918492     -0.30608104809502
