19
Coordinates from ORCA-job mp2_opt
  C   0.58716716606066     -0.13429607007563     -0.00001943606649
  C   1.37795368017333     -1.28807560220102      0.00023099778623
  C   1.19279935664575      1.12540535710879     -0.00030299446692
  C   -1.54783941591365     -1.42409271808777     -0.00017562295388
  C   -1.75605611795130      0.80816242684716     -0.00027992722780
  H   -1.11057232008650     -2.40621283795432     -0.00014118962072
  C   2.76395610829969     -1.17956185717105      0.00019440982782
  H   0.93230923184903     -2.27356919499977      0.00049492524963
  C   3.37583315769665      0.07160181576075     -0.00009760697226
  H   3.36386786896211     -2.08229319093453      0.00038070244949
  C   2.58260569547471      1.21445542598316     -0.00032525921458
  H   4.45626549171460      0.15205156452602     -0.00011998261048
  H   3.04270278523802      2.19582542184509     -0.00054835230187
  H   0.57866008352377      2.01375097722508     -0.00047854221708
  N   -2.94833740394613      0.13052348405390     -0.00007135684274
  H   -3.85445070180951      0.57003386637119     -0.00006527306661
  N   -0.82562890869480     -0.25318273779105     -0.00004008993790
  N   -2.83631612669359     -1.22445781808092     -0.00019456041249
  O   -1.56832463054285      2.01336468757493     -0.00008684140138
