19
Coordinates from ORCA-job mp2_opt
  C   0.58118773546320     -0.16517116528558      0.00266101438029
  C   1.26484352166937     -0.14168168022798     -1.21021788755256
  C   1.26413859540745     -0.08492767105418      1.21353692450650
  C   -1.58767083528475     -1.40788746752635      0.02858391654923
  C   -1.70673788170683      0.83566559812422     -0.01672446191099
  H   -1.15762249626858     -2.39633120130404      0.04829260661810
  C   2.65363851116149     -0.04691767817934     -1.20750507206115
  H   0.70570253478465     -0.18981289827961     -2.13759887089485
  C   3.34785896545032      0.02670368895553     -0.00100430986481
  H   3.19247365578012     -0.02606029141933     -2.14749680214111
  C   2.65294503995569      0.00880305307588      1.20717598443563
  H   4.42895000051166      0.10165838214190     -0.00239885711583
  H   3.19141928236055      0.07211344941207      2.14547816088498
  H   0.70444226029419     -0.08992075214852      2.14181283890268
  N   -2.92812690178674      0.20349435166084     -0.00353682781227
  H   -3.81878739445707      0.67306984381941     -0.01255176050217
  N   -0.83479717483035     -0.26387776328326      0.00500299530980
  N   -2.86968233539587     -1.15967374323914      0.02401389521233
  O   -1.43441408310850      2.02204294475748     -0.04106248694379
