19
Coordinates from ORCA-job mp2_opt
  C   0.58205454416158     -0.13298692265625     -0.03829181795273
  C   1.34026802410246     -1.23358925238267      0.36462100920527
  C   1.19931248067923      1.06211559863742     -0.40770018025100
  C   -1.55404374815570     -1.36367572726359     -0.37905650035575
  C   -1.73493959100565      0.79126479485814      0.22612500495919
  H   -1.10864273520449     -2.29615146804364     -0.68428898058896
  C   2.72851488088215     -1.14310011545633      0.37287126603259
  H   0.84876601712880     -2.14347595839110      0.68921683168987
  C   3.35666109136747      0.04430266559808      0.00290984143006
  H   3.31729475458514     -1.99837772984053      0.68317318365621
  C   2.58839289562062      1.14245677980094     -0.37827735454384
  H   4.43773128113923      0.11499962780943      0.01905830356747
  H   3.07105140372098      2.07070114858284     -0.66103890504508
  H   0.59407422128246      1.90998096787568     -0.69879753158528
  N   -2.93621348375471      0.14244073571112      0.08025487562046
  H   -3.83871532834827      0.56838936093379      0.21535882787285
  N   -0.82623949109653     -0.24005537316879     -0.07812640069879
  N   -2.84090398559094     -1.16402809746957     -0.29672362215543
  O   -1.50861823151382      1.94701296486501      0.53816214914290
