19
Coordinates from ORCA-job mp2_opt
  C   0.58003886147899     -0.12779659095900     -0.06048033485522
  C   1.21303801916004      1.03192050946559     -0.50563661026283
  C   1.31912951474125     -1.20552699556222      0.42792166639206
  C   -1.55978657944262     -1.33872793741064     -0.45225919998054
  C   -1.72744535164611      0.78642213008893      0.25639544084019
  H   -1.11796235655923     -2.25636852668892     -0.80521943107338
  C   2.60132851903595      1.10725283589427     -0.45217318153269
  H   0.61819730471198      1.85996297507760     -0.86853977714547
  C   3.35179649421177      0.03151429455876      0.01929653312888
  H   3.09814523905773      2.00949140256705     -0.78912579647085
  C   2.70804020021380     -1.12430023254700      0.45649671421018
  H   4.43289230280192      0.09578101236969      0.05237241892499
  H   3.28505421500934     -1.96068672614642      0.83323442920213
  H   0.80968093109820     -2.08769529672047      0.79892776595266
  N   -2.93177898947561      0.14280297624844      0.10946552701846
  H   -3.83112347609755      0.55659746251712      0.29418778695111
  N   -0.82768725355458     -0.22479368390544     -0.12966229820732
  N   -2.84451616969998     -1.14652314581332     -0.32666450537922
  O   -1.48854742504529      1.92487053696601      0.61746185228687
