19
Coordinates from ORCA-job mp2_opt
  C   0.57950759266679     -0.13630480180886     -0.08245884859963
  C   1.31506671337035     -1.20948701664364      0.42151621393955
  C   1.21403153415613      1.02908520022435     -0.50985715890741
  C   -1.56933044543902     -1.33569022230963     -0.45550363449132
  C   -1.72098007081682      0.78922452152821      0.25761951577154
  H   -1.13476839940793     -2.25473372212695     -0.81386180265133
  C   2.70356278068238     -1.12740312206443      0.46071254341376
  H   0.80307555020813     -2.09096262921130      0.79067364398580
  C   3.34966983133758      0.02959356173374      0.02990519547371
  H   3.27812847196516     -1.96193313915351      0.84524010619256
  C   2.60191502943556      1.10534317950027     -0.44558935054127
  H   4.43036737600419      0.09513699443178      0.07223844786043
  H   3.10019069131768      2.01036883316774     -0.77273968263562
  H   0.62125586932783      1.85873806346770     -0.87225546844975
  N   -2.92924637003341      0.15035060077097      0.12278372107125
  H   -3.82489740590906      0.56764072585320      0.31733619189954
  N   -0.82930718170930     -0.22522697809457     -0.13894829151423
  N   -2.85186825425992     -1.13873468654899     -0.31587628650757
  O   -1.47424631289632      1.92625363728393      0.61777694468999
