19
Coordinates from ORCA-job mp2_opt
  C   0.58077165727970     -0.13485777171090     -0.06032463760199
  C   1.32838984875233     -1.22251710078649      0.39320497037903
  C   1.20592081803195      1.04622340071324     -0.45886566530927
  C   -1.56168536131227     -1.35014538883310     -0.41782326144617
  C   -1.72804134212569      0.79029406305003      0.24247063773640
  H   -1.12150115549509     -2.27601684277678     -0.75029048128358
  C   2.71685345856352     -1.13590471149262      0.41674727955308
  H   0.82699187530495     -2.11881931506511      0.74017996976301
  C   3.35325097339651      0.03722573739903      0.01637166280868
  H   3.29919301308833     -1.98126242762975      0.76413387476563
  C   2.59447766645421      1.12480232983511     -0.41200198785494
  H   4.43419923625705      0.10562538940551      0.04567506609648
  H   3.08447139578025      2.04206785586046     -0.71695268096171
  H   0.60632535073327      1.88543311282535     -0.78550065888737
  N   -2.93296834178097      0.14670400175680      0.10185950031621
  H   -3.83230227338748      0.56884885371344      0.26669491322588
  N   -0.82769836057524     -0.23334374044144     -0.10845839550556
  N   -2.84662430400723     -1.15126604104795     -0.30673374693084
  O   -1.49139915495812      1.93687659522518      0.57900164113705
