19
Coordinates from ORCA-job mp2_opt
  C   0.58712802593888     -0.13383035978928      0.00135990359774
  C   1.19217260640385      1.12349457753217     -0.07395038903569
  C   1.37636617562490     -1.28518631937101      0.08977348584780
  C   -1.54506849000018     -1.42020699505290     -0.08880942321995
  C   -1.75621945951050      0.80661646155094      0.06608461425629
  H   -1.10511938270846     -2.39745347038190     -0.17747973914095
  C   2.58206361117530      1.21119443480263     -0.08625917427947
  H   0.57793634023118      2.01025830206327     -0.12774554881833
  C   3.37437284934122      0.06961797704770     -0.01621708576575
  H   3.04318199122927      2.19001377044629     -0.14967979487520
  C   2.76247117327115     -1.17836898398685      0.07347340412882
  H   4.45483478505903      0.14906402463780     -0.02661651595545
  H   3.36247685179495     -2.07860216149566      0.13964320448943
  H   0.92762412057997     -2.26488456865293      0.18597124985117
  N   -2.94771787445074      0.12966442990788      0.00775907795285
  H   -3.85468742829820      0.56721881722189      0.01842947180051
  N   -0.82521580476770     -0.25291807374209      0.01916121289295
  N   -2.83353005916684     -1.22157948136008     -0.09489886120917
  O   -1.56820303174708      2.00870661862214      0.14927090748238
