19
Coordinates from ORCA-job mp2_opt
  C   0.58455470125692     -0.13418006597467     -0.02367398050992
  C   1.19198008916632      1.09009898356780     -0.30643878493531
  C   1.35788788133890     -1.25477864206791      0.28882540837299
  C   -1.54615887944576     -1.38892935497938     -0.29346899703229
  C   -1.74415128681485      0.79554158342717      0.18145510385074
  H   -1.09760308519788     -2.33649247605163     -0.53973590172624
  C   2.58157720701840      1.17388136294392     -0.29777014181629
  H   0.58017033366753      1.95475555893381     -0.52234677290820
  C   3.36284502729035      0.05667033661933     -0.01302476576311
  H   3.05334525541808      2.12429063691885     -0.51862119141058
  C   2.74517118833759     -1.15715556375151      0.28066494328493
  H   4.44367878800611      0.13193343607290     -0.01140845891191
  H   3.34149446540560     -2.02976247083865      0.52039001034595
  H   0.88295503798878     -2.19027612706845      0.55910837096399
  N   -2.94045492652341      0.13506156295291      0.05166800740428
  H   -3.84588288622628      0.56730170290065      0.13877736899427
  N   -0.82459365920094     -0.24948860710398     -0.03361910540811
  N   -2.83447877146169     -1.18924947406070     -0.24893132580622
  O   -1.53416648002378      1.97036761755953      0.42843621301103
