19
Coordinates from ORCA-job mp2_opt
  C   0.58511694013394     -0.12910802617450      0.01248034217656
  C   1.36487906001846     -1.26270981699909      0.25611619005958
  C   1.18991244124283      1.10226620809649     -0.24680572907320
  C   -1.53970379599620     -1.39826256692687     -0.24650980038415
  C   -1.75125812647851      0.79803545607113      0.15971845772010
  H   -1.08794322291362     -2.35236131482250     -0.45749594696996
  C   2.75181422277613     -1.16357451222659      0.23150115426842
  H   0.89871327620712     -2.21067438772871      0.49520739878614
  C   3.36578788501156      0.05997167910702     -0.02667423306065
  H   3.35080296738778     -2.04619493735973      0.42337986609234
  C   2.57959802174279      1.18597066330970     -0.25682480804936
  H   4.44654225774039      0.13523064820850     -0.04016401820286
  H   3.04710755203464      2.14344365180327     -0.45528499837673
  H   0.57575243856968      1.97346733377810     -0.42555901231149
  N   -2.94335628609869      0.13124411905742      0.02685951904884
  H   -3.85090939131329      0.56409505810634      0.08350459321901
  N   -0.82432714523688     -0.25016892441638     -0.00539945285687
  N   -2.82881559646725     -1.20048624439175     -0.23267853949466
  O   -1.55175549836087      1.98108291350813      0.37530101740894
