19
Coordinates from ORCA-job mp2_opt
  C   0.58072330266526     -0.10587087195525     -0.09865740899610
  C   1.27767785777293      0.73766428355839     -0.95919737384874
  C   1.25095725922016     -0.90064305541901      0.82852544206375
  C   -1.56819507129852     -1.24541731639315     -0.65094181942232
  C   -1.71981342712453      0.75484933805071      0.36095010498226
  H   -1.12698917007118     -2.11337982224556     -1.11440035458723
  C   2.66602038024648      0.79301791907192     -0.87954540552254
  H   0.72820015866733      1.34699173454913     -1.66720762661822
  C   3.34803600370065     -0.00167556056377      0.04044736150362
  H   3.21584502657845      1.45246353116177     -1.54080310410192
  C   2.64058658017742     -0.84807796564871      0.89209721938955
  H   4.42941279289796      0.04047165030861      0.09537246859721
  H   3.16945249039787     -1.46410564629775      1.60998759173991
  H   0.68175494204040     -1.54231878760981      1.49200902562331
  N   -2.92996951831807      0.14606532936606      0.12620611903505
  H   -3.82547489145598      0.52143569069566      0.39292071425416
  N   -0.83283627325934     -0.18429026913791     -0.19133804860782
  N   -2.85117897568844     -1.07306511405032     -0.48292931694496
  O   -1.46504746714882      1.81958193255899      0.89249341146104
