19
Coordinates from ORCA-job mp2_opt
  C   0.57905125413181     -0.12316680186963     -0.07153862470857
  C   1.22289517180671      1.01387521775261     -0.55658829510818
  C   1.30603990556158     -1.18659205874935      0.46308945393679
  C   -1.56185980943820     -1.32327819817122     -0.49051057264752
  C   -1.72454167249228      0.78347527927271      0.27274241995656
  H   -1.12124542920199     -2.23203253980835     -0.86758635904612
  C   2.61081076894531      1.08476267634070     -0.49139428371752
  H   0.63544681012241      1.82969186775718     -0.95808989570932
  C   3.34960305877953      0.02315567224170      0.02847040970729
  H   3.11675035524206      1.97025059465043     -0.85782371939107
  C   2.69521171804381     -1.11202354040784      0.50243037497365
  H   4.43070069031028      0.08251307064552      0.06984008170638
  H   3.26408932334636     -1.93692171551518      0.91518027847772
  H   0.78586405696839     -2.05149292334179      0.85932783028228
  N   -2.92975943783126      0.14189784239157      0.12275002226922
  H   -3.82741170529863      0.54729730767102      0.33259913255934
  N   -0.82860021678944     -0.21425952091621     -0.15464549357444
  N   -2.84538167626579     -1.13710936751994     -0.34437216603587
  O   -1.48063416594066      1.91165713757607      0.66098340606938
