19
Coordinates from ORCA-job mp2_opt
  C   0.58543536530194     -0.13378133370440      0.01684533855804
  C   1.19095869917274      1.10168366408050      0.25315289687440
  C   1.36401985962709     -1.26394504011032     -0.24685074400786
  C   -1.54370772760664     -1.39881418271903      0.24820719209275
  C   -1.74849789682919      0.79846733883309     -0.15661186284732
  H   -1.09507995291243     -2.35361283698131      0.46274170596940
  C   2.58072177203035      1.18628981705767      0.25191674258698
  H   0.57767318942537      1.97356803701049      0.43103173378259
  C   3.36597286605358      0.06068691722029      0.01721658985667
  H   3.04890600030987      2.14581745703765      0.43832407436920
  C   2.75091453395656     -1.16398199627753     -0.23335688403028
  H   4.44669921743013      0.13715532704730      0.02064330602567
  H   3.34901679179859     -2.04501181206413     -0.43495061374606
  H   0.89633714019764     -2.21155084183768     -0.48426752866151
  N   -2.94262322304119      0.13204759811305     -0.04007909417642
  H   -3.84904228569577      0.56595602355029     -0.10600650393981
  N   -0.82436297080542     -0.25119332276296      0.01589233835709
  N   -2.83239082895723     -1.20013560893988      0.21880993273129
  O   -1.54614954945601      1.98197279544692     -0.36709461979482
