19
Coordinates from ORCA-job mp2_opt
  C   0.58044009293946     -0.14910014251960      0.12228622636424
  C   1.24119030836335     -0.75361408437639     -0.94470699355000
  C   1.28311371460014      0.55783191423515      1.09386544164820
  C   -1.59376696705916     -1.30246274813813      0.53667493041739
  C   -1.69867462183266      0.78689693069816     -0.28405225301076
  H   -1.17288549992610     -2.21754183504814      0.92162062554697
  C   2.62924119084194     -0.67955882138218     -1.01644345872076
  H   0.66614755860674     -1.27353396559059     -1.70283766725901
  C   3.34346688323456      0.01600434932047     -0.04240171859851
  H   3.15133784732964     -1.15380377999945     -1.83912858700885
  C   2.66991929497727      0.63775272907332      1.00758548573912
  H   4.42348606941561      0.07782681574253     -0.10462507218545
  H   3.22422276180389      1.18767432244442      1.75894081774810
  H   0.73884281222236      1.03994522835457      1.89749013461690
  N   -2.92114547782686      0.17587262335578     -0.13182796615378
  H   -3.80635540067569      0.58950779036750     -0.37521041062446
  N   -0.83532722027982     -0.21352390150641      0.19366594758418
  N   -2.87077834420898     -1.09607615165821      0.36106765326389
  O   -1.41920000252568      1.89439872662720     -0.70436013581743
