19
Coordinates from ORCA-job mp2_opt
  C   0.58658224409386     -0.13372582805591     -0.00187012669174
  C   1.19095401560550      1.11817168924023     -0.13848934565481
  C   1.37336623435509     -1.27925563229126      0.15424748625367
  C   -1.54287500629765     -1.41396859260787     -0.15177881384442
  C   -1.75478542482229      0.80370586031659      0.10593901053440
  H   -1.09783760549610     -2.38302238042767     -0.29366902983173
  C   2.58081433272368      1.20456390771819     -0.15148603348917
  H   0.57637664062896      2.00107094662828     -0.23710655003647
  C   3.37167235549272      0.06675387169434     -0.02200238114616
  H   3.04356297325925      2.17823067375690     -0.26332591259965
  C   2.75961394444947     -1.17485092463872      0.13300411542013
  H   4.45217085129307      0.14517926449429     -0.03428878222907
  H   3.35964655431373     -2.06973041220536      0.25076170357641
  H   0.91900876340306     -2.24880396592279      0.31210340183328
  N   -2.94631434945118      0.12946219982723      0.01628036376826
  H   -3.85342184967209      0.56614992436002      0.04164665364547
  N   -0.82478277965606     -0.25304553879311      0.01699827550982
  N   -2.83155058038950     -1.21563524836086     -0.15222489127045
  O   -1.56383231383351      2.00031918526748      0.24273285625223
