19
Coordinates from ORCA-job mp2_opt
  C   0.57975080602651     -0.10023633540001      0.10065329393160
  C   1.27406519671124      0.83394999139527      0.86453413035759
  C   1.25339141544168     -0.99225117359074     -0.73109586666427
  C   -1.56428787409578     -1.24220247570831      0.65653178448717
  C   -1.72167147900568      0.75468197571402     -0.36086009720271
  H   -1.12090814169758     -2.10518974236802      1.12711093319336
  C   2.66200519080710      0.88505923305043      0.77817177494470
  H   0.72267013200069      1.51527623009042      1.50167121605293
  C   3.34745369760262     -0.00593330887749     -0.04623332328866
  H   3.20929728574538      1.61493838125548      1.36307713702714
  C   2.64306788998958     -0.94452334781496     -0.79789004621689
  H   4.42872834640506      0.03295676542768     -0.10478423590852
  H   3.17403495184506     -1.63558054602658     -1.44211376471296
  H   0.68712957372899     -1.70364500957554     -1.32209658483326
  N   -2.92935988666142      0.13848838322649     -0.13390408482548
  H   -3.82477489684738      0.50601002410028     -0.41169469041172
  N   -0.83212513504761     -0.17511175233485      0.20465926368544
  N   -2.84692749790333     -1.07906726780882      0.47780153014939
  O   -1.47010357504513      1.81898597524526     -0.89478536976485
