19
Coordinates from ORCA-job mp2_opt
  C   0.57667823162402     -0.13541934515585     -0.12780314864232
  C   1.27357513435759     -1.14651125450313      0.53269657427749
  C   1.24406119859285      0.96068953457798     -0.66911876902713
  C   -1.58698903536215     -1.28221006913983     -0.57111068798187
  C   -1.70536760740568      0.77957281578750      0.31405599945715
  H   -1.16367776647725     -2.17429650326090     -1.00440722017240
  C   2.66192047052371     -1.08171540363306      0.60580700404111
  H   0.72898207422113     -1.96795805838888      0.98515040474541
  C   3.34156894683982      0.00385925276969      0.05668704722044
  H   3.20980583848413     -1.87006848928818      1.10873059041399
  C   2.63053685327841      1.02541750356309     -0.57097689797141
  H   4.42173586564131      0.05698623562127      0.12426635942173
  H   3.15650026771296      1.87609680783070     -0.98814924704683
  H   0.67532399356409      1.74766050914818     -1.14883510974771
  N   -2.92117201976318      0.15800698135920      0.16306714942638
  H   -3.80715798095632      0.55515463098774      0.43043354036750
  N   -0.83431392207672     -0.19659350945702     -0.20422514786396
  N   -2.86369872780158     -1.09576549781033     -0.37322858785990
  O   -1.43644381499715      1.87875185899182      0.76304614694233
