19
Coordinates from ORCA-job mp2_opt
  C   0.58121910816978     -0.13127580131942      0.04955642144575
  C   1.20484965342575      1.04796528897948      0.45611578113495
  C   1.33122088121077     -1.22090190362293     -0.39503092825504
  C   -1.55682665836057     -1.35284440609247      0.41438899015216
  C   -1.73103692691026      0.78861466117395     -0.24041435935374
  H   -1.11317294978516     -2.27851147012173      0.74271360031353
  C   2.59354335393106      1.12675550144573      0.41528374023854
  H   0.60377613801918      1.88646810305189      0.78191985423253
  C   3.35432166392536      0.03925217230849     -0.00978854376128
  H   3.08220645902125      2.04329052216627      0.72455187404414
  C   2.71979128918894     -1.13396988099888     -0.41273137924947
  H   4.43539689090372      0.10759707359938     -0.03398428990967
  H   3.30379257826316     -1.98012332489055     -0.75534932525759
  H   0.83173439569650     -2.11805366139275     -0.74254596576671
  N   -2.93395824269351      0.14252679238228     -0.09425895749492
  H   -3.83503082230964      0.56325045203088     -0.25311460773505
  N   -0.82675608423805     -0.23399330258671      0.10315274644210
  N   -2.84274936456875     -1.15610156886149      0.31115702107952
  O   -1.49835936288954      1.93636275274858     -0.57580767229977
