19
Coordinates from ORCA-job mp2_opt
  C   0.58645974148304     -0.13081847864739     -0.03420501378991
  C   1.37414001565033     -1.27899673633491     -0.16226195181957
  C   1.18995124035727      1.11854517844417      0.12848265593753
  C   -1.54022757068187     -1.41390867592175      0.14650669738514
  C   -1.75642918870769      0.80368791878169     -0.10753335956933
  H   -1.09340503257924     -2.38313418348324      0.28125419576077
  C   2.76026629218743     -1.17477146873400     -0.12844442847613
  H   0.92147978515845     -2.24940250574100     -0.31984164481000
  C   3.37126078358939      0.06643425791206      0.03310226459923
  H   3.36088787248853     -2.07106619003787     -0.23174332770254
  C   2.57959251598062      1.20465329262682      0.15424048259292
  H   4.45162850572467      0.14426637264564      0.05705648523090
  H   3.04149738368893      2.17720448859752      0.27885294945730
  H   0.57473395294952      2.00119841539512      0.22586232261879
  N   -2.94634122301231      0.12954574586495      0.00079517007857
  H   -3.85389874435976      0.56581501408921     -0.01296095839150
  N   -0.82496530210985     -0.25251791116723     -0.02965203748829
  N   -2.82879296458248     -1.21567764091519      0.16632834257779
  O   -1.56745206322497      2.00011510662540     -0.24851084419167
