19
Coordinates from ORCA-job mp2_opt
  C   -0.72539373099056      0.02508889702617     -0.00470207860435
  C   -1.44790739100946      1.21476206157143      0.07403747190905
  C   -2.83619111785520      1.14908802824588      0.07326070309255
  C   -3.44909760103037     -0.09920859148052     -0.00125070958028
  H   -0.93044832911356      2.16671067706931      0.12633437514342
  H   -3.43746064166139      2.04869578010571      0.12804176467508
  H   -4.53137504316104     -0.18226338927488     -0.00092954619786
  C   0.75387427619995      0.01879779734049     -0.00032568280115
  C   -1.43618415234589     -1.17564339227319     -0.07826740987474
  H   -0.89937302541590     -2.11805903464879     -0.14516263997672
  N   -2.77154254071230     -1.25237883374069     -0.07623273253148
  N   1.37848885581801      0.09710916789950     -1.18611274293297
  N   3.49692485069742     -0.00235917364714     -0.07130791115920
  C   2.71481150422972      0.08119754525905     -1.15199812703325
  H   3.21925801241714      0.14232241078817     -2.11076368736906
  C   2.85700144451739     -0.07934799574077      1.10080481205975
  H   3.47726297236545     -0.14720887851183      1.98925772279380
  C   1.47102460613493     -0.07476383950457      1.19022944287895
  H   0.96296205091565     -0.14068323648335      2.14461097550847
