19
Coordinates from ORCA-job mp2_opt
  C   -0.72471199772334      0.04672240683421      0.01457160604857
  C   -1.45456866447982      1.04699329462567     -0.62681661720694
  C   -2.84137409223161      0.97129014936783     -0.60554138868827
  C   -3.44655849280814     -0.09938030273285      0.04898062813760
  H   -0.94067275914056      1.86480519111997     -1.12031232477723
  H   -3.44907951948995      1.72547851604220     -1.09100484529513
  H   -4.52816643281065     -0.18483187499322      0.08038367675262
  C   0.75166763269168      0.03419707981589     -0.01285777231580
  C   -1.42759651314140     -0.99153868937259      0.63163942705533
  H   -0.88425779621283     -1.78728449581115      1.13513227922200
  N   -2.76242668000449     -1.07257722877318      0.66464973906006
  N   1.39590011993563      0.98365605566190      0.68509523410386
  N   3.49559771652149      0.02921355208465      0.03660006266363
  C   2.73106383719027      0.92756922959775      0.66549351708111
  H   3.25138775938779      1.69522404531228      1.22893569303003
  C   2.83650331831255     -0.91107632757030     -0.64976604099141
  H   3.44191723944744     -1.64721469137880     -1.16962894987937
  C   1.44949780108874     -0.95435809178349     -0.70365872356571
  H   0.92619452346718     -1.71759181804677     -1.26690920043493
