19
Coordinates from ORCA-job mp2_opt
  C   -0.72286012298632      0.03243014101588     -0.01913816993300
  C   -1.43208847550379      1.06202058542087      0.59803751955807
  C   -2.82102926084687      1.00821283905945      0.59023570738144
  C   -3.44674117629296     -0.06829297057499     -0.03263413467529
  H   -0.90422294886674      1.87849593960466      1.08024944188344
  H   -3.41263574759742      1.78181471720669      1.06488501614350
  H   -4.52975882070691     -0.13612869988053     -0.05732494584122
  C   0.75290715781839      0.00777435981068     -0.01928959199589
  C   -1.44631402088065     -1.01451239922167     -0.59774972429171
  H   -0.91642483300618     -1.83974032622498     -1.06491536404760
  N   -2.78142954260502     -1.07102495871606     -0.62278549032320
  N   1.35390429388375     -0.99352201465127      0.64329320375226
  N   3.49468035652074     -0.08045631596580      0.07410431674458
  C   2.69043759762357     -0.98086872752240      0.64778411280068
  H   3.17517223597218     -1.79115035349516      1.18255129066877
  C   2.87828123815994      0.91057964542934     -0.58021193712357
  H   3.51636022858277      1.64756204811273     -1.05810130521202
  C   1.49490668729464      1.00143891760146     -0.65509722853286
  H   1.00741915343687      1.80356857299108     -1.19615271695638
