19
Coordinates from ORCA-job mp2_opt
  C   -0.72255770046647      0.01516879713084      0.00956465268764
  C   -1.43166833814799      1.15162362124654     -0.38223000914747
  C   -2.81843777625813      1.09874772024384     -0.38020154459658
  C   -3.44771809990312     -0.08023054037149      0.01592745596212
  H   -0.89317394584845      2.04566489833752     -0.67515998769941
  H   -3.41011878786937      1.95395969331086     -0.68389524344289
  H   -4.53081488794212     -0.15156016231537      0.02237761695074
  C   0.74971523507506      0.00188280176627     -0.00552736654207
  C   -1.44921451561504     -1.11505648550117      0.39641514460680
  H   -0.92848449125125     -2.00608627523461      0.73781306217549
  N   -2.78480694568708     -1.17565747699791      0.40886343562223
  N   1.37805394493295      1.11528650870777      0.40756469924936
  N   3.49632036155733      0.06291059426537      0.03562992337568
  C   2.71268714574027      1.08226107962900      0.40219570318487
  H   3.21664037797277      1.98321274962919      0.73681462961653
  C   2.85563886551152     -1.03521736533770     -0.38076270370802
  H   3.47541686339881     -1.86967799368952     -0.69378697667889
  C   1.47058974515983     -1.11662875432718     -0.42247468720773
  H   0.97086994964047     -2.00628441049225     -0.78525080440840
