19
Coordinates from ORCA-job mp2_opt
  C   -0.72264100679515      0.00446242665659     -0.00036505088727
  C   -1.42659972110375      1.17257664049222      0.29850635117570
  C   -2.81346404182980      1.12862775699584      0.29750443526557
  C   -3.45074579502971     -0.07225214612924     -0.00955593577800
  H   -0.88193365515832      2.08168236182862      0.52475190574069
  H   -3.39955682530004      2.00882648066502      0.53323743509135
  H   -4.53425618240086     -0.13775592321148     -0.01181519153302
  C   0.75049620898897     -0.00872293767387      0.00303563360881
  C   -1.45788454450381     -1.14379914671601     -0.31226152668001
  H   -0.94735728077169     -2.06034606337959     -0.59511969196557
  N   -2.79363478241281     -1.19673364397217     -0.32111339048663
  N   1.37379823582633      1.13822897301281     -0.31509410077151
  N   3.49963903764346      0.07377405638384     -0.03775606666503
  C   2.70796566618671      1.11446295583404     -0.31664337381289
  H   3.20446267932668      2.04400596375635     -0.57574429839955
  C   2.86575383114796     -1.05690314148092      0.29241450813223
  H   3.49069959647408     -1.91009948356194      0.53714507546186
  C   1.48157604158607     -1.14983462819161      0.33294155622773
  H   0.99398653812566     -2.06931050130849      0.63096472627552
