19
Coordinates from ORCA-job mp2_opt
  C   -0.72515828845122      0.04525125991915      0.00975519231116
  C   -1.45557074426508      1.02332162672328     -0.66411628491469
  C   -2.84262334078851      0.94957855833035     -0.63772488494527
  C   -3.44712789863247     -0.09808118440780      0.05336959340613
  H   -0.94306096233547      1.82415077866352     -1.18620556302454
  H   -3.45056084528477      1.68817435667457     -1.14634623165589
  H   -4.52871519593403     -0.18164810973890      0.08980221178545
  C   0.75231603967347      0.03397867374919     -0.01337742351827
  C   -1.42744832519132     -0.97064721313255      0.66344777135627
  H   -0.88371251449010     -1.74956639841359      1.19200947567369
  N   -2.76229992058480     -1.05055159244153      0.69997723362290
  N   1.39403279753936      0.94272105948426      0.73868064245178
  N   3.49618103316864      0.02953389487793      0.03993815588068
  C   2.72944650487372      0.88902583338853      0.71845066615292
  H   3.24778474518406      1.62371900516893      1.32594662703521
  C   2.83931669160703     -0.87134286439445     -0.69931758119808
  H   3.44641548347632     -1.57652656119753     -1.25866014249471
  C   1.45235646439419     -0.91304113337326     -0.75768607328732
  H   0.93065027604099     -1.64508798988012     -1.36225638463741
