19
Coordinates from ORCA-job mp2_opt
  C   -0.72229956082946      0.03441927309884     -0.01095838699156
  C   -1.44363616016569      1.14280855409718      0.43329708434584
  C   -2.83155750327119      1.07869734643639      0.42455535775382
  C   -3.44604704189382     -0.08625623389268     -0.02723710519688
  H   -0.92726990747420      2.02553741754565      0.79664335496327
  H   -3.43145527689727      1.91133858590414      0.77160232629057
  H   -4.52841929768658     -0.16592257741404     -0.04556099988347
  C   0.75033085593621      0.01881332564986     -0.01197028785617
  C   -1.43579236863067     -1.09396210777864     -0.42944134976773
  H   -0.89432817891056     -1.97375118071738     -0.76299933832257
  N   -2.76986207458821     -1.16291021749029     -0.45205646077496
  N   1.35371448450800     -1.08662842464018      0.45506352144675
  N   3.49403435585470     -0.08806804289000      0.05866387478889
  C   2.68924033126844     -1.07700975763205      0.46023340434500
  H   3.17377492882635     -1.97160954489108      0.83775816177904
  C   2.87724002694802      1.00418936821442     -0.40708968818890
  H   3.51513815297832      1.81413399542680     -0.74708645131562
  C   1.49441013295443      1.10776763078651     -0.46465842528685
  H   1.01180410107319      1.99153359018656     -0.86410959212846
