19
Coordinates from ORCA-job mp2_opt
  C   -0.72550322987633      0.04016497601678      0.00411025127824
  C   -1.45434723238480      1.00331436719485     -0.69225089411598
  C   -2.84176061865477      0.93412209490620     -0.66193657060806
  C   -3.44772484793068     -0.09431684481742      0.05597520758641
  H   -0.94127965688420      1.78978876511796     -1.23531998321578
  H   -3.44841666234145      1.66223239170834     -1.18694445671975
  H   -4.52944134751853     -0.17412115854682      0.09628070818884
  C   0.75284666663137      0.03034328664020     -0.01233973813298
  C   -1.42922022363915     -0.95544504423501      0.68661620498396
  H   -0.88668636317466     -1.72140877375198      1.23480677465858
  N   -2.76419964702099     -1.03172640806473      0.72563320255656
  N   1.39008004766123      0.88652088749804      0.80227128861514
  N   3.49638073972964      0.03102306036635      0.04488658102535
  C   2.72583280369417      0.83797810163100      0.78098980705781
  H   3.24082373501732      1.53014995521704      1.43917145290301
  C   2.84371289780736     -0.81778601849206     -0.75687478535622
  H   3.45395796279858     -1.48076886044945     -1.36251724450646
  C   1.45695535677718     -0.85917960695988     -0.82062511567422
  H   0.93842061930871     -1.54986017097940     -1.47452569052444
