19
Coordinates from ORCA-job mp2_opt
  C   -0.72468442126080      0.03682059831267      0.02823474922415
  C   -1.46819408364971      1.20182287886588      0.22850311847914
  C   -2.85420837946806      1.12433513013779      0.19788433771307
  C   -3.45310921699099     -0.11018540710661     -0.03646149545580
  H   -0.97918435649414      2.14724824176808      0.43528404748731
  H   -3.46522412358243      2.00418276447791      0.36026349390564
  H   -4.53434791351069     -0.20304743266894     -0.06427432415275
  C   0.75073374153962      0.03505409036413      0.02217530279432
  C   -1.42595505131364     -1.15430910715786     -0.20031825872171
  H   -0.87302190562290     -2.07246389651414     -0.36391479469860
  N   -2.75934859765843     -1.23913044167903     -0.23488065473789
  N   1.36285687284874     -1.14207481984928      0.23524714579774
  N   3.50254905123896     -0.09398440940835      0.01680492514874
  C   2.69616692945211     -1.14077858760671      0.21985107501982
  H   3.17913367202559     -2.09679464574449      0.39425420815570
  C   2.88210846284482      1.06919947482636     -0.20868667565616
  H   3.51731569926978      1.93084702034098     -0.38957904278043
  C   1.49933217814305      1.18642048789141     -0.22334886148233
  H   1.03066344218911      2.13792606075020     -0.43844629603994
