19
Coordinates from ORCA-job mp2_opt
  C   -0.72258034009991      0.01518709444336     -0.00953226228398
  C   -1.43162506489282      1.15166769078173      0.38230707777138
  C   -2.81839659972767      1.09888327540968      0.38024713465646
  C   -3.44774581465145     -0.08003760873446     -0.01594629615160
  H   -0.89308659315761      2.04566263453207      0.67529701300652
  H   -3.41003800030616      1.95411369257726      0.68396552927907
  H   -4.53084749793828     -0.15128832871436     -0.02242128966840
  C   0.74969248471299      0.00181528679543      0.00557568660770
  C   -1.44930389806477     -1.11497296544002     -0.39644755622921
  H   -0.92862161284917     -2.00602101657647     -0.73787139390326
  N   -2.78489807186834     -1.17548971490811     -0.40891817387713
  N   1.37809999672529      1.11519841266416     -0.40745081584893
  N   3.49629935180982      0.06268123742981     -0.03554601791595
  C   2.71273440110765      1.08209723500958     -0.40206453269091
  H   3.21674091894554      1.98303267099273     -0.73664581258864
  C   2.85554782097592     -1.03543361859391      0.38078709944202
  H   3.47528932844584     -1.86993399225739      0.69377593696515
  C   1.47049481274876     -1.11676347079078      0.42247785400860
  H   0.97071437808436     -2.00640551462030      0.78520381942111
