19
Coordinates from ORCA-job mp2_opt
  C   -0.72468190134963      0.03681694346056     -0.02821408935347
  C   -1.46819017863835      1.20181387380279     -0.22851702758200
  C   -2.85420552977984      1.12432395897706     -0.19792738627498
  C   -3.45310942061419     -0.11019396396965      0.03642131165989
  H   -0.97917842241325      2.14723723942085     -0.43530405349175
  H   -3.46521741184849      2.00416922120617     -0.36033483581779
  H   -4.53434844770041     -0.20306173581324      0.06421080164200
  C   0.75073605384011      0.03505482392304     -0.02213236671705
  C   -1.42595510609698     -1.15430884869706      0.20034816942066
  H   -0.87302414306099     -2.07246018705337      0.36397313085731
  N   -2.75934887246889     -1.23913332772521      0.23487660706008
  N   1.36286689679697     -1.14207583925929     -0.23517877565692
  N   3.50255264634440     -0.09396722024657     -0.01675094387289
  C   2.69617606305041     -1.14077128645637     -0.21977368760421
  H   3.17915239222213     -2.09678489973549     -0.39416476636669
  C   2.88210364431971      1.06921444775358      0.20872682846720
  H   3.51730311873049      1.93087033977283      0.38960821072914
  C   1.49932595441753      1.18642628937817      0.22338768520379
  H   1.03065566424927      2.13793417126120      0.43847318769769
