19
Coordinates from ORCA-job mp2_opt
  C   -0.72564278364744      0.03308502139630     -0.00385499921415
  C   -1.45281547705872      1.00956601821119     -0.68302193835266
  C   -2.84061291297625      0.94488386696653     -0.65019283414394
  C   -3.44834048689605     -0.09072127985464      0.05551836039207
  H   -0.93905171204634      1.80213546018246     -1.21659515326825
  H   -3.44594266719768      1.68319601991498     -1.16231972524961
  H   -4.53022739509829     -0.16716212457739      0.09776518156800
  C   0.75352664102463      0.02548006794560     -0.01213644997276
  C   -1.43128009201460     -0.96629241734129      0.67111108333253
  H   -0.89020792879902     -1.74009543866329      1.20944379784812
  N   -2.76637766653965     -1.03881593631737      0.71169680830880
  N   1.38436272175841      0.78846332995767      0.89478469008999
  N   3.49691205832824      0.02906241759590      0.05647729318323
  C   2.72043173490580      0.74624054805627      0.87471974903773
  H   3.23008915138935      1.36276814259276      1.60795791955068
  C   2.85056169945775     -0.72469375788448     -0.83990390479572
  H   3.46569596891022     -1.31363576252105     -1.51331875419342
  C   1.46419363655907     -0.76271017632418     -0.91435001443528
  H   0.95086850994058     -1.37798899933598     -1.64334810968536
