19
Coordinates from ORCA-job mp2_opt
  C   -0.72269511095941      0.03195250182055      0.00962243115564
  C   -1.45298790226609      1.16888861652237      0.35868711906206
  C   -2.84020358879169      1.10151995022789      0.33733432084324
  C   -3.44791387605751     -0.09438614748896     -0.03561207891793
  H   -0.94635941491258      2.07760006120735      0.66672653254472
  H   -3.44522396517489      1.95658025235371      0.61386816121120
  H   -4.52986839394160     -0.17824837063416     -0.06164354861376
  C   0.75009665057029      0.02391276439706      0.00559597332954
  C   -1.43054566879380     -1.12360891332130     -0.34058514991981
  H   -0.88418259370956     -2.02206936053956     -0.60832782110400
  N   -2.76422772869611     -1.19641659021355     -0.37349188097908
  N   1.36018734942106     -1.11538349639292      0.37231798896023
  N   3.49655754378986     -0.08708036467848      0.04161293075370
  C   2.69487719985956     -1.10585785724289      0.36790433687872
  H   3.18215645301095     -2.02841920049230      0.66652624508221
  C   2.87496015200551      1.03676789070631     -0.33278771900625
  H   3.50954931507082      1.87118635150025     -0.61477644051275
  C   1.49188202381841      1.14328873913103     -0.37138200963168
  H   1.01035255575678      2.05499417313760     -0.70265639113600
