19
Coordinates from ORCA-job mp2_opt
  C   -0.72301323520129      0.02867021296637     -0.01938057881442
  C   -1.43905178639454      1.12554233012467      0.46121807492354
  C   -2.82573346737138      1.06255884074103      0.45727418963618
  C   -3.44618769642737     -0.08929446264011     -0.02325646640312
  H   -0.90851648747528      2.00064999151276      0.81963098332754
  H   -3.42337320853550      1.88795138121633      0.82499998505819
  H   -4.52876609190532     -0.16755235582291     -0.03424308389100
  C   0.74959948559104      0.01463208180338      0.00730601990890
  C   -1.44075574156692     -1.08016437944868     -0.47699959951194
  H   -0.91082167649639     -1.94342788044329     -0.87199431935987
  N   -2.77610235527285     -1.15006123330216     -0.49206221370341
  N   1.38583028128789      1.08458823799690     -0.49771944151618
  N   3.49508477007810      0.05092850743754     -0.03051697146894
  C   2.72065419401249      1.04232554899250     -0.48303604870689
  H   3.23275974306884      1.90833797413211     -0.88970800532137
  C   2.84523856347941     -1.00705068142315      0.46792038449552
  H   3.45808452455975     -1.81911257081848      0.84669992856481
  C   1.45920177397208     -1.07507731847484      0.50973597434610
  H   0.94773941059723     -1.93099622454997      0.93294818843635
