19
Coordinates from ORCA-job mp2_opt
  C   -0.72254906228718      0.03429110933891      0.02193053368332
  C   -1.43320051470446      1.08622007313883     -0.55492470305438
  C   -2.82194906875060      1.02962259577126     -0.55081325117366
  C   -3.44619977337815     -0.07218110130148      0.02774909096010
  H   -0.90647639916880      1.92107045346128     -1.00601615847683
  H   -3.41463117961874      1.81973946650325     -0.99593051084094
  H   -4.52911570392415     -0.14321215774761      0.04804968925398
  C   0.75214755611509      0.01024266760502      0.02161415154292
  C   -1.44470314694368     -1.03692372877449      0.55675457323969
  H   -0.91284630206311     -1.87875941761310      0.99055802350153
  N   -2.77955031126010     -1.09660061148266      0.57793280463520
  N   1.35178330176587     -1.02230402480060     -0.59255479182787
  N   3.49413864432468     -0.08420390356992     -0.07327785908460
  C   2.68808706200287     -1.01141474577530     -0.59987080025278
  H   3.17110171274276     -1.84767873833283     -1.09476460385678
  C   2.87940134619225      0.93818421792505      0.53267306754100
  H   3.51886366444330      1.69735762124299      0.97235834687970
  C   1.49636952710665      1.03328120375192      0.60659275534790
  H   1.01117364740548      1.86023502065946      1.11110564198251
