19
Coordinates from ORCA-job mp2_opt
  C   -0.72255925295078      0.03435281166042     -0.02197178977272
  C   -1.43321923722973      1.08623909908948      0.55494394594308
  C   -2.82197027596454      1.02965051680926      0.55078695490346
  C   -3.44621660376202     -0.07209687901127     -0.02788047527960
  H   -0.90652954313742      1.92106666693025      1.00611817612733
  H   -3.41463414880640      1.81975105448622      0.99595933518428
  H   -4.52913149449271     -0.14313494162974     -0.04822243468669
  C   0.75213550567728      0.01028056099595     -0.02162087169721
  C   -1.44470898266360     -1.03680630901670     -0.55691397631899
  H   -0.91284121895609     -1.87860915380445     -0.99076984489551
  N   -2.77955608260381     -1.09647408350447     -0.57814195489434
  N   1.35173686340674     -1.02233088263342      0.59247963336936
  N   3.49413233340027     -0.08424075745714      0.07332198175934
  C   2.68804021439164     -1.01145285364880      0.59985785435587
  H   3.17102518393309     -1.84780974796210      1.09462576732131
  C   2.87942554959135      0.93820410034602     -0.53256408878677
  H   3.51890551042557      1.69742497664518     -0.97214352056738
  C   1.49639551415299      1.03335991702362     -0.60647060229871
  H   1.01126016558816      1.86040390468168     -1.11089508976613
