19
Coordinates from ORCA-job mp2_opt
  C   -0.72419397403115      0.04508566104251     -0.01849121540432
  C   -1.45192723968516      1.06987693107288      0.58586935079885
  C   -2.83859122660678      0.99446620735540      0.57026092856217
  C   -3.44606830234527     -0.09935924255567     -0.04283723812396
  H   -0.93513828375045      1.90442763539954      1.04714123635952
  H   -3.44490896283901      1.76614246657007      1.02921179812597
  H   -4.52780836856183     -0.18514307488404     -0.06854329173535
  C   0.75100734122892      0.03173147034641      0.01111076345266
  C   -1.42923640278244     -1.01452902451068     -0.59566653638468
  H   -0.88763649328172     -1.82781523971711     -1.07245879223836
  N   -2.76410737936484     -1.09493538773109     -0.62405882883078
  N   1.39553708561397      1.01605788291618     -0.63662360711582
  N   3.49511032167794      0.03238779263105     -0.03383924075430
  C   2.73055640413039      0.96110742803103     -0.61692608643318
  H   3.25097310058083      1.75753478548741     -1.13883625276985
  C   2.83596545930788     -0.94202881946080      0.60313111395314
  H   3.44140494430663     -1.70263705437953      1.08641957835914
  C   1.44904697416550     -0.98941806992767      0.65285712772913
  H   0.92619000223658     -1.77930034768589      1.17853619245004
