19
Coordinates from ORCA-job mp2_opt
  C   -0.72519338771706      0.04521472809729     -0.00982814254935
  C   -1.45578183233076      1.02318850133940      0.66398587145385
  C   -2.84282274522014      0.94925197319817      0.63749476344840
  C   -3.44713863937521     -0.09849487659133     -0.05363499923218
  H   -0.94343063862860      1.82409536642542      1.18611208466809
  H   -3.45091454140816      1.68775824225535      1.14606215210026
  H   -4.52871423559217     -0.18219380853116     -0.09012725685944
  C   0.75228243806217      0.03408548830073      0.01339099197867
  C   -1.42730400569845     -0.97078318131106     -0.66357054497240
  H   -0.88341352655149     -1.74962237348046     -1.19209177434427
  N   -2.76213898526140     -1.05087258063447     -0.70019462606076
  N   1.39396624776497      0.94289007364448     -0.73861438660470
  N   3.49614401060849      0.02986348812833     -0.03976453655400
  C   2.72938456200685      0.88930061515994     -0.71831074690264
  H   3.24769467570936      1.62406049283661     -1.32575060483687
  C   2.83931359833625     -0.87108062122528      0.69944037573326
  H   3.44644777118961     -1.57622385974106      1.25879609824382
  C   1.45235488428555     -0.91289438064690      0.75772734704939
  H   0.93065434982019     -1.64498128722398      1.36225393424087
