19
Coordinates from ORCA-job mp2_opt
  C   -0.72513318407453     -0.01344592157929     -0.00648396032324
  C   -1.41921396763647      1.19487214108610     -0.11122358730590
  C   -2.80620007167458      1.16912245088508     -0.11149050148803
  C   -3.45975388767364     -0.05583493937164      0.00119571919827
  H   -0.86385527958289      2.12089067778632     -0.19468154259385
  H   -3.37958819295990      2.08444795360775     -0.19793945242779
  H   -4.54402834173179     -0.10836403007985     -0.00157645226169
  C   0.75258252660988     -0.02706143379235      0.00377126372131
  C   -1.47874392940616     -1.18566227129875      0.12384171182138
  H   -0.99234701149919     -2.14749231390217      0.25109257359147
  N   -2.81509692767241     -1.22286071678352      0.12495140404840
  N   1.36814189980500      1.16195098801019      0.11776905503613
  N   3.50751293273904      0.09754104616841      0.02120989466722
  C   2.70113251934286      1.15859220573020      0.12176297284977
  H   3.18388583753403      2.12579389187884      0.21770523284708
  C   2.88549702806636     -1.07936116020439     -0.10785596326480
  H   3.51957181240815     -1.95545587363899     -0.20278838651060
  C   1.50276142714843     -1.19621008190194     -0.12884717921605
  H   1.04053681025781     -2.16533061259999     -0.25863880238909
