19
Coordinates from ORCA-job mp2_opt
  C   -0.72531400000000      0.03772000000000      0.04710300000000
  C   -1.43568500000000      1.04443500000000     -0.60998100000000
  C   -2.82618700000000      0.98595900000000     -0.62325900000000
  C   -3.45138900000000     -0.08411700000000      0.01592100000000
  H   -0.90231400000000      1.85934700000000     -1.10718400000000
  H   -3.41814200000000      1.75214000000000     -1.12844600000000
  H   -4.54510400000000     -0.15861700000000      0.02431200000000
  C   0.75849900000000      0.00733500000000      0.04369800000000
  C   -1.45960600000000     -1.00274200000000      0.63254600000000
  H   -0.92848000000000     -1.82392600000000      1.12779600000000
  N   -2.78571200000000     -1.05915600000000      0.63051500000000
  N   1.35238700000000     -0.95893800000000     -0.66130700000000
  N   3.48869200000000     -0.07922600000000     -0.09177400000000
  C   2.68156700000000     -0.95335900000000     -0.68519300000000
  H   3.16210600000000     -1.75311000000000     -1.26193600000000
  C   2.89359100000000      0.88573100000000      0.60490700000000
  H   3.54633600000000      1.61270600000000      1.10285700000000
  C   1.50939700000000      0.98233400000000      0.70954000000000
  H   1.02878200000000      1.77292900000000      1.28888200000000
