19
Coordinates from ORCA-job mp2_opt
  C   -0.72564109022219      0.03306987255987      0.00386448320667
  C   -1.45281465714377      1.00945877031308      0.68316735721348
  C   -2.84060930857774      0.94476186254310      0.65035276143876
  C   -3.44833225710484     -0.09076736334736     -0.05547901862842
  H   -0.93903429527844      1.80196096184131      1.21682451037645
  H   -3.44596157409476      1.68298764209636      1.16257759060276
  H   -4.53021931984788     -0.16721326057286     -0.09771864377927
  C   0.75352727945477      0.02548713426015      0.01213083096702
  C   -1.43127235815765     -0.96623529100763     -0.67121242788927
  H   -0.89019780930933     -1.73996614167145     -1.20964649568132
  N   -2.76636996981345     -1.03877137613249     -0.71178449674093
  N   1.38434306832100      0.78860238440075     -0.89469435449426
  N   3.49691740313466      0.02914379316341     -0.05650637906912
  C   2.72041299714313      0.74640538545984     -0.87465275508128
  H   3.23005321719919      1.36304476029771     -1.60780888228498
  C   2.85058902559183     -0.72474413100989      0.83977690369340
  H   3.46574125731290     -1.31376038687851      1.51311101642808
  C   1.46422065406066     -0.76280895545037      0.91422951190079
  H   0.95094473733189     -1.37821066086502      1.64315848782144
