19
Coordinates from ORCA-job mp2_opt
  C   -0.72518040001307      0.01743414461243      0.00995707054971
  C   -1.44218276645994      1.00238153228345      0.68764535401127
  C   -2.83084755945281      0.95313082379966      0.65419329237500
  C   -3.44900607735981     -0.07272191699950     -0.05618270514835
  H   -0.92051017733229      1.78201785042922      1.23281277195142
  H   -3.42819704923497      1.69474584089471      1.17090939075879
  H   -4.53161219119476     -0.13561980568485     -0.10194994258150
  C   0.75412255563432      0.00859178663469      0.00493473421472
  C   -1.44107632469416     -0.97231358655214     -0.66841207470654
  H   -0.90800765623621     -1.75680788437603     -1.19876953098309
  N   -2.77663360708915     -1.02738200464300     -0.71316763484151
  N   1.37312953873535     -0.75322911136744      0.92084844255959
  N   3.49705615742061     -0.05003162199400      0.06247682485634
  C   2.70977255360978     -0.73774882497196      0.89543618365823
  H   3.20995117968913     -1.35330096876234      1.63596202470952
  C   2.86232841125140      0.70091349887314     -0.84458649397363
  H   3.48637421297568      1.26392776322687     -1.53185347396429
  C   1.47677896212318      0.76524720889131     -0.91463882176057
  H   0.97297523762771      1.37509427570579     -1.65478541168512
