19
Coordinates from ORCA-job mp2_opt
  C   -0.72469898231849      0.04668839590397     -0.01459477896376
  C   -1.45464352282397      1.04692668703068      0.62674448564678
  C   -2.84144181454953      0.97108643832551      0.60549821948115
  C   -3.44653389257214     -0.09968044338142     -0.04895243388370
  H   -0.94082013166936      1.86481865949141      1.12018365407401
  H   -3.44921023983802      1.72524176646497      1.09093462724934
  H   -4.52813445751584     -0.18523847829432     -0.08033077355050
  C   0.75168244083337      0.03428362491954      0.01282504435031
  C   -1.42749554361955     -0.99167882014247     -0.63158923734986
  H   -0.88408543653374     -1.78740013743776     -1.13504420395785
  N   -2.76231719681428     -1.07284569449012     -0.66457645391593
  N   1.39583335419567      0.98376476462699     -0.68517411640819
  N   3.49561192930521      0.02951413337410     -0.03666756904130
  C   2.73100121725030      0.92778433664536     -0.66558850777190
  H   3.25125476464931      1.69546449123679     -1.22906169651415
  C   2.83660051490095     -0.91079858850276      0.64974397268707
  H   3.44207939952426     -1.64687014388010      1.16962690652962
  C   1.44959847364641     -0.95418934827866      0.70365573438017
  H   0.92636612394943     -1.71744264361173      1.26694612695869
