19
Coordinates from ORCA-job mp2_opt
  C   -0.72276967959331      0.02151322415344     -0.01484219139192
  C   -1.43488775614670      1.13928622471099      0.42196710186267
  C   -2.82162136466403      1.08176395510667      0.41921988556888
  C   -3.44681372246282     -0.08431387382663     -0.01925126332704
  H   -0.89993988784758      2.02430643517219      0.74755345004501
  H   -3.41606524884924      1.92283383036482      0.75524593642699
  H   -4.52968415430764     -0.15874706853253     -0.02776545177645
  C   0.74953691829241      0.00784053976772      0.00653135990625
  C   -1.44523540731895     -1.09852038765066     -0.43691009516554
  H   -0.91999633152106     -1.97618834346875     -0.80533783975142
  N   -2.78074251628181     -1.16339023268504     -0.45044445925503
  N   1.38151036438038      1.10090515839749     -0.45261451378624
  N   3.49545264923451      0.05708145136350     -0.03290758547758
  C   2.71627474633383      1.06334437952106     -0.44252750848853
  H   3.22427086810704      1.94771877788414     -0.81326516912196
  C   2.85042129080307     -1.02223721795005      0.42425079416461
  H   3.46690559802033     -1.84614643333836      0.77007633687177
  C   1.46487426065698     -1.09730917659611      0.46585664498411
  H   0.95922137316458     -1.97084824239390      0.85872656771141
