19
Coordinates from ORCA-job mp2_opt
  C   -0.72545150057395      0.03960428817764     -0.03140206079288
  C   -1.47255673983387      1.21007821738674     -0.18146591275523
  C   -2.85824630681268      1.12909423288990     -0.15030852244068
  C   -3.45504761276719     -0.11461929528899      0.03462517424693
  H   -0.98898435734939      2.16568633350756     -0.34899046588923
  H   -3.47054073828296      2.01446711206026     -0.27320291566175
  H   -4.53607697519390     -0.21026566082265      0.06164680175851
  C   0.75119594496393      0.03853562109370     -0.02516830108430
  C   -1.42536613580111     -1.16058904726370      0.15193362407373
  H   -0.87102970755454     -2.08341911406975      0.27843283954467
  N   -2.75868981528966     -1.24917121373785      0.18538317591789
  N   1.36246166787054     -1.14738144136107     -0.18588618800535
  N   3.50452101340052     -0.09739510226986     -0.00907557725465
  C   2.69534610879065     -1.14947376808424     -0.16892382033225
  H   3.17568010523743     -2.11348256387322     -0.30152780255808
  C   2.88602186343838      1.07555405767321      0.16450740472666
  H   3.52259493862383      1.94315031653852      0.30861008799471
  C   1.50349477412212      1.19701546459970      0.17134217116312
  H   1.04052847301186      2.15988456284411      0.34231728734819
