19
Coordinates from ORCA-job mp2_opt
  C   -0.72364433684901      0.04152036892853      0.02101728252262
  C   -1.44804000950052      1.09126928472693     -0.54367000855909
  C   -2.83465677498542      1.01837974401134     -0.53341827371764
  C   -3.44574238993704     -0.09741338476858      0.03526252959372
  H   -0.92717834886775      1.94132817215071     -0.97060776913397
  H   -3.43862013269366      1.80840292853708     -0.96329767821505
  H   -4.52770521238456     -0.18206236142446      0.05499519922808
  C   0.75045727468334      0.02741782180866     -0.00943116562124
  C   -1.43217119592541     -1.03743604746814      0.55682668195392
  H   -0.89361184016613     -1.86819361969997      1.00623798722635
  N   -2.76714780785395     -1.11574685267456      0.57975298214403
  N   1.39370983017172      1.04291363123000      0.58971287040287
  N   3.49501016506777      0.03733173258890      0.03177631594035
  C   2.72862332245352      0.99109670253891      0.57039689894538
  H   3.24751167506403      1.81336619972882      1.05225971779420
  C   2.83740651036461     -0.96799401006037     -0.55699703682842
  H   3.44416743333414     -1.74916475566049     -1.00443783364160
  C   1.45066730168500     -1.02109101939866     -0.60324588257878
  H   0.93002053633934     -1.83510253509465     -1.09302081745572
