19
Coordinates from ORCA-job mp2_opt
  C   -0.72563502400056     -0.01536021969791      0.00444239504232
  C   -1.41874024519747      1.19710093092210      0.05757068061888
  C   -2.80572086112955      1.17403007249935      0.05781632552124
  C   -3.46163640412875     -0.05326075608697     -0.00034047764771
  H   -0.86213919401298      2.12501373137778      0.10067084986041
  H   -3.37716962630672      2.09356430923282      0.10231478023388
  H   -4.54599441216862     -0.10398396247481      0.00173669332600
  C   0.75310257922020     -0.02903225614503     -0.00274593231193
  C   -1.48202590594298     -1.19096519134062     -0.06581235044426
  H   -0.99989773373186     -2.16041651909909     -0.13581808936456
  N   -2.81842070750207     -1.22566778220786     -0.06603819774207
  N   1.36795207000633      1.16444781274317     -0.06096996296112
  N   3.50914374862258      0.10110534218547     -0.01232500185994
  C   2.70076712332068      1.16412063884866     -0.06389357911727
  H   3.18150216555322      2.13579519129391     -0.11362393122259
  C   2.88854585390452     -1.08145040979427      0.05582876373957
  H   3.52367085843622     -1.96051508568498      0.10552655762367
  C   1.50607163393808     -1.20174016973521      0.06782679195083
  H   1.04825208111973     -2.17871167683650      0.13850868475467
