19
Coordinates from ORCA-job mp2_opt
  C   -0.72486100000000      0.04009000000000      0.05517300000000
  C   -1.43482900000000      1.06992000000000     -0.56565700000000
  C   -2.82520000000000      1.00957400000000     -0.58620200000000
  C   -3.45046000000000     -0.08595300000000      0.00821100000000
  H   -0.90129200000000      1.90380300000000     -1.03031400000000
  H   -3.41676800000000      1.79316300000000     -1.06436000000000
  H   -4.54406100000000     -0.16287300000000      0.00966300000000
  C   0.75758800000000      0.00816900000000      0.05108600000000
  C   -1.45948900000000     -1.02574100000000      0.59370900000000
  H   -0.92723100000000     -1.86556500000000      1.05500200000000
  N   -2.78519900000000     -1.08398200000000      0.58554900000000
  N   1.34918300000000     -0.99422700000000     -0.60420000000000
  N   3.48763200000000     -0.08338000000000     -0.09525000000000
  C   2.67805900000000     -0.98941900000000     -0.63512300000000
  H   3.15612300000000     -1.81927300000000     -1.16985700000000
  C   2.89531300000000      0.91739400000000      0.55152300000000
  H   3.55011900000000      1.67057800000000      1.00587600000000
  C   1.51181000000000      1.01822100000000      0.65923700000000
  H   1.03421400000000      1.83776900000000      1.19954900000000
