17
Coordinates from ORCA-job opt
  N   -1.13372376722554      2.24366298491748      0.00466991003268
  C   -0.48701748892323      1.07012433397114      0.11011226635134
  C   -0.37667614410956      3.34306336412596      0.02502244610157
  C   -1.29801918618358     -0.14947117678112      0.06671658139884
  N   0.84407772028549      0.91115497178003      0.20393114967945
  C   -0.83855755464715     -1.39227521136667     -0.43460605327229
  C   -2.63300516073755     -0.19037773933580      0.42983804733878
  C   -1.82303922775901     -2.35325679034690     -0.42561350363154
  H   0.17432555018461     -1.55993544504989     -0.77470409227687
  S   -3.29201051022847     -1.73695615720664      0.18654468306026
  H   -1.75659709702141     -3.38131507790149     -0.74995893492853
  H   -3.23026377932267      0.62195165471880      0.81675438038579
  C   1.57764628009843      2.02703316920879      0.20913627594060
  C   1.00787325946121      3.29070510900607      0.12529469363310
  H   2.65304822016108      1.89569985416045      0.28396303799958
  H   1.61195434069183      4.18865289397367      0.13158446194807
  H   -0.90201545472447      4.29034026212613     -0.05278434976083
