17
Coordinates from ORCA-job opt
  N   0.22181875167548      1.24019223966212      1.13324389983410
  C   -0.41004151867698      1.03318973874058     -0.03469772589603
  C   0.86568473232047      2.40323996136218      1.26279074595662
  C   -1.09350016412553     -0.25421243665770     -0.19668307940870
  N   -0.41823040117548      1.87100529785748     -1.08532458362979
  C   -1.83160272336853     -0.89679412875701      0.82710395979455
  C   -1.18236478022617     -0.92103778334497     -1.40551706940885
  C   -2.44120558621730     -2.04897919385371      0.38618968700474
  H   -1.89301662538893     -0.52563783298795      1.84145809270035
  S   -2.11774046742558     -2.33270870984942     -1.26502628637720
  H   -3.06063605958749     -2.73435370430866      0.94566586336370
  H   -0.74109889729748     -0.63030809192199     -2.34743937081188
  C   0.24527330268459      3.02014803851278     -0.93286548162901
  C   0.90971295121080      3.34476930698242      0.24280844236596
  H   0.23761363755026      3.69614121460404     -1.78273594180706
  H   1.43946323580204      4.28169596547702      0.35626117048409
  H   1.36786861224583      2.57244911848280      2.21066867746442
