17
Coordinates from ORCA-job opt
  N   -1.10082000882207      2.18559359104031      0.41390470441058
  C   -0.49398774338247      1.08684922836126     -0.06602776967986
  C   -0.34027259117987      3.27649443288131      0.53909197251747
  C   -1.30265304039109     -0.13125564905747     -0.18034461348692
  N   0.80583570410613      0.98333518732370     -0.39151089463740
  C   -0.82970711124790     -1.42869018633084      0.13374137445864
  C   -2.65034183146091     -0.12515213398684     -0.49303530138928
  C   -1.81634444129610     -2.38240251413226      0.03047396080665
  H   0.19450662594080     -1.63940743285094      0.41094511287778
  S   -3.30443601296087     -1.69249997528852     -0.43977619432154
  H   -1.74107185045440     -3.44464689626292      0.21053967786307
  H   -3.26134217002823      0.73063023318585     -0.73978869461162
  C   1.54552384074104      2.08545347046877     -0.24281957179393
  C   1.01173445953366      3.28068322758271      0.22118509618176
  H   2.59561874089323      1.99953632453515     -0.50590150974384
  H   1.62011038031184      4.16830643848649      0.33665323166321
  H   -0.83435295030280      4.16597065404423      0.91856941888524
