17
Coordinates from ORCA-job opt
  N   -0.40292845869908      1.73090503467211     -1.04349939917312
  C   -0.42572436537743      1.03246548608756      0.10425731500875
  C   0.29272143830573      2.87070303783806     -1.03337727239921
  C   -1.19808443588169     -0.21171079503386      0.10856899404355
  N   0.16956561716214      1.39212203091126      1.25473897349281
  C   -1.56678976400446     -0.92436665268778     -1.05970789221917
  C   -1.60229165933721     -0.85466387535953      1.26623255195216
  C   -2.25295832564963     -2.08045156643557     -0.76897833171412
  H   -1.33740733422821     -0.58517508035438     -2.06049733220282
  S   -2.43895619923059     -2.29043461838566      0.91478436492997
  H   -2.65130735135302     -2.81275487684756     -1.45573800009388
  H   -1.43535868414862     -0.53421525590454      2.28379240613462
  C   0.84941406177150      2.54017099969681      1.23936793683240
  C   0.94887554749272      3.33029533429127      0.10079386670269
  H   1.32826330397348      2.82855889338159      2.17047087817477
  H   1.50691027970897      4.25755261976825      0.09881733901632
  H   0.31405632949541      3.42979928436199     -1.96412539848572
