17
Coordinates from ORCA-job opt
  N   -0.70581982887728      1.95604143766172     -0.89213108149509
  C   -0.44656703148329      1.05177652878682      0.06707209967751
  C   0.02140279804160      3.07687107360000     -0.86418285582096
  C   -1.26733285168771     -0.16981011557004      0.06663761970002
  N   0.44377020318198      1.19075402416013      1.06290999751565
  C   -1.33022341146525     -1.08722416664254     -1.00909049101665
  C   -1.96244996859646     -0.61481055006407      1.17520844425660
  C   -2.09554773589942     -2.19241281132601     -0.71076930341289
  H   -0.84305488821982     -0.92810383429717     -1.96234829755382
  S   -2.71830994327182     -2.10814025328131      0.87437518513295
  H   -2.31733931624076     -3.04216340162127     -1.33931242139094
  H   -2.04919764312300     -0.12794439001493      2.13560928822138
  C   1.14860169892807      2.32683353040259      1.07331465702367
  C   0.97775345666374      3.31594460194909      0.11405450945957
  H   1.86896497707304      2.43781777569218      1.87824033585759
  H   1.55682824637627      4.23021055145741      0.13132735586454
  H   -0.18347976139989      3.80316099910741     -1.64501404201912
