17
Coordinates from ORCA-job opt
  N   -0.06139829523419      1.53115734874731     -1.09180357241684
  C   -0.41217876189105      1.02454509573522      0.10233889971862
  C   0.59373886759323      2.69464824176454     -1.07595425734969
  C   -1.11803858471562     -0.25852853198960      0.09724512285555
  N   -0.14320499527489      1.57505214446245      1.29896776523208
  C   -1.80000386500263     -0.78797782653416     -1.02671983615828
  C   -1.24048169287663     -1.06626590284771      1.21506739533843
  C   -2.41107964259156     -1.98797856900584     -0.74660352719384
  H   -1.82398720125315     -0.30062024827106     -1.99168343277151
  S   -2.15462296098303     -2.45672080767475      0.87458355271779
  H   -2.99602245977332     -2.61115587476873     -1.40696751260251
  H   -0.83214402908851     -0.88697445287449      2.19847810312952
  C   0.52111737292162      2.73218031591689      1.28579031603197
  C   0.91664415333241      3.34914755058547      0.10534604335850
  H   0.73786426626566      3.17386305588437      2.25396125523825
  H   1.45119272133106      4.29014124530866      0.10669567834507
  H   0.87060510724058      3.10428721556142     -2.04284499347309
