17
Coordinates from ORCA-job opt
  N   -1.10714008608637      2.21352829979616     -0.16933737077890
  C   -0.48178193624932      1.06756976927054      0.14771575679228
  C   -0.35458842652692      3.31790301109087     -0.17343820512202
  C   -1.28099536871225     -0.16427277314721      0.11819461183909
  N   0.82801352876949      0.93188996611976      0.41604053546838
  C   -0.88657136578568     -1.34598464553169     -0.55435539477674
  C   -2.56399414405544     -0.25368723377026      0.62621919311825
  C   -1.86185542868550     -2.31674032191181     -0.52005634977944
  H   0.07829855494046     -1.47058101976437     -1.02796415737991
  S   -3.24636579355473     -1.78011614929370      0.31971193049573
  H   -1.83354176600626     -3.30851969844779     -0.94664051423139
  H   -3.11659715380185      0.51182284126016      1.15105398917465
  C   1.55870460048748      2.05001103853231      0.39084337527858
  C   1.00594289138278      3.29121586254308      0.10322351510087
  H   2.61678698314653      1.93861803592462      0.60833000312121
  H   1.60696108621115      4.19117485963022      0.08679187975357
  H   -0.86327417547358      4.24496815769911     -0.42043179807423
