17
Coordinates from ORCA-job opt
  N   -1.13641298080319      2.24751567970431      0.04605970761606
  C   -0.48812189941140      1.07115239327317      0.09789759290707
  C   -0.37851998117391      3.34575067684324      0.07370767226906
  C   -1.30177071153967     -0.14606900386359      0.05052415969294
  N   0.84490393017119      0.91002878078379      0.15005504023693
  C   -0.82993558030629     -1.40183589877534     -0.40563817244687
  C   -2.64611309991138     -0.17746961207380      0.37942600476924
  C   -1.81578194054871     -2.36122974555793     -0.40029734953459
  H   0.19163191228148     -1.57841352702207     -0.71333912120847
  S   -3.30051574372652     -1.72856928707950      0.15473897985748
  H   -1.74167132171022     -3.39723386464960     -0.69654082337452
  H   -3.25147725714153      0.64423313089604      0.73229003660814
  C   1.57917004859993      2.02526368847206      0.16508294318720
  C   1.00846178984003      3.29078985654935      0.13197193714053
  H   2.65614652053040      1.89183974188532      0.20604228843557
  H   1.61319243805148      4.18820582193631      0.14567867864356
  H   -0.90518712320168      4.29484216867823      0.03824142520067
