17
Coordinates from ORCA-job opt
  N   0.71464219605149      1.13301786004418     -0.68619615901030
  C   -0.35359135427363      0.99889923841795      0.11550587956120
  C   1.32360984623060      2.32373334547449     -0.66821549969848
  C   -1.05649444827639     -0.29895267845744      0.08511124794509
  N   -0.87685635954437      1.95391434872487      0.90098979101154
  C   -2.30081887923004     -0.50897423064075     -0.55386456574568
  C   -0.52762633128397     -1.46760781971054      0.59676812920659
  C   -2.70314400797226     -1.82532651680451     -0.49806182573835
  H   -2.87626876998468      0.27767016145016     -1.02469346189569
  S   -1.56258590439215     -2.79035565222814      0.32195855762829
  H   -3.60475629734531     -2.26622755628310     -0.89684594782125
  H   0.41379906683490     -1.59598520453456      1.11094192566735
  C   -0.25281570626812      3.13640611233646      0.89428402694959
  C   0.87344363515318      3.37561275667756      0.11812270412879
  H   -0.67571375494999      3.90723949609487      1.53149586090941
  H   1.37183555441810      4.33644913921160      0.12098057403880
  H   2.19133951483265      2.42928720022689     -1.31238123713690
