17
Coordinates from ORCA-job opt
  N   -0.14935204176778      1.57891476568926     -1.08914985005488
  C   -0.41607346926398      1.02658999546603      0.10621638220346
  C   0.51604684441390      2.73648667511206     -1.07589573144463
  C   -1.13845924261962     -0.24714137642028      0.10445721483597
  N   -0.06266186065059      1.53240407620354      1.30066220242583
  C   -1.74230969146537     -0.82068083421395     -1.04259537673097
  C   -1.33038003548489     -1.01653489523604      1.23987764966095
  C   -2.37161582543323     -2.01022151404976     -0.75887370159750
  H   -1.70355040770446     -0.36914409529925     -2.02416316776000
  S   -2.22484694235831     -2.41752244203820      0.89227315336596
  H   -2.91005542966605     -2.65894211412133     -1.43406417452941
  H   -0.98153707888086     -0.80279059292459      2.23910949940746
  C   0.60566659652732      2.68669320224938      1.28476218424546
  C   0.92494640857335      3.34492112292558      0.10330939355353
  H   0.88991752322294      3.09189161142623      2.25143898065233
  H   1.46540835942694      4.28250355050041      0.10240787251425
  H   0.72685729313069      3.18137386473091     -2.04387353074781
