17
Coordinates from ORCA-job opt
  N   -0.74337563489649      1.98390987601130     -0.86041334375408
  C   -0.44943921931053      1.05497520897347      0.06422507902123
  C   -0.01411659771241      3.10363112568555     -0.83034244989079
  C   -1.27042900884578     -0.16845695167379      0.06223363665571
  N   0.47999474852196      1.16573258933544      1.02700213299290
  C   -1.29553307041513     -1.11029320946576     -0.99333660761943
  C   -2.01073304077267     -0.58457959941880      1.15220235656657
  C   -2.07603058444204     -2.20632233914982     -0.69930346212388
  H   -0.77119354100570     -0.97611841370566     -1.93064800648409
  S   -2.75899255559463     -2.08339845476606      0.85783847840976
  H   -2.27679571721652     -3.06958836856192     -1.31637657381874
  H   -2.13512443294672     -0.07475475202901      2.09646108410952
  C   1.18732561116908      2.30050876309688      1.04009826970977
  C   0.98007924244933      3.31552906878221      0.11581538268241
  H   1.93946854909153      2.38869107329343      1.81831024958260
  H   1.56078446534175      4.22874052085612      0.13515725066966
  H   -0.24789021341502      3.85059486273643     -1.58302447670913
