17
Coordinates from ORCA-job opt
  N   0.96400332375364      1.01503880841004     -0.21046903551774
  C   -0.35136374473197      0.99138547277761      0.06570425638660
  C   1.56246892106722      2.20631838712131     -0.15424331109718
  C   -1.02821374659341     -0.30559565996677     -0.00401571092847
  N   -1.10891942511570      2.05825077316913      0.37113240298054
  C   -2.42878710555174     -0.46713458653938     -0.14745090643107
  C   -0.35745287396997     -1.51681224094882      0.00510429168297
  C   -2.79364705264317     -1.79065011244763     -0.23229322128627
  H   -3.12363158970429      0.36075567052187     -0.17927121220171
  S   -1.43599142347420     -2.82070789155752     -0.13861315921153
  H   -3.78466417231752     -2.20444444820044     -0.34740836393050
  H   0.70807100020075     -1.67216726854984      0.08624545111354
  C   -0.48651500764237      3.23892877001157      0.41086843522663
  C   0.87188331955526      3.37155457614747      0.15523613368940
  H   -1.10192433334461      4.09925175539740      0.65680122729471
  H   1.36647759961125      4.33348316757867      0.19117577413980
  H   2.62620731090083      2.22134282707532     -0.37260305190973
