17
Coordinates from ORCA-job opt
  N   0.30642958017019      1.36302331034529     -1.03506772517339
  C   -0.39325137020795      1.02055141183903      0.05952584374472
  C   0.93574355164390      2.54120754984823     -0.99338115243320
  C   -1.05975650311707     -0.29140029590799      0.03740828829775
  N   -0.48358230306631      1.73405496773530      1.19374812698365
  C   -2.04170325724044     -0.67052747241208     -0.90855048636799
  C   -0.88779238929240     -1.24423894939950      1.02364807371760
  C   -2.57218795682491     -1.91325879152110     -0.64328997244779
  H   -2.33004038377115     -0.05720081333039     -1.75237818443380
  S   -1.88040621676376     -2.59890360662655      0.75633332895999
  H   -3.32909750896371     -2.44959574109571     -1.19624969832448
  H   -0.22986769566125     -1.19352352871587      1.87892372607095
  C   0.16566644512938      2.90269383892706      1.21191629896433
  C   0.89695142795110      3.36328552320807      0.12527581670403
  H   0.09115850637528      3.47935569994388      2.12900741485464
  H   1.41574106490625      4.31286656228706      0.15099350964400
  H   1.49399600873286      2.82041133487524     -1.88195920876101
