17
Coordinates from ORCA-job opt
  N   0.35446542933308      1.34072344403441     -1.01547382102990
  C   -0.38974270569654      1.02000437235844      0.05577330862499
  C   0.98240919178440      2.51979966148674     -0.97115287140805
  C   -1.05814197966519     -0.29281625417541      0.03230360492787
  N   -0.52932140990718      1.75706978639312      1.16946535623023
  C   -2.07464351708385     -0.65393801887550     -0.88324949003207
  C   -0.84408576065513     -1.26795541687124      0.98756129338300
  C   -2.59111357833857     -1.90461779962859     -0.62641968636318
  H   -2.39851019419897     -0.02292888530522     -1.70082202834503
  S   -1.84373524965455     -2.61953118585820      0.72878900086008
  H   -3.36715605157923     -2.43091874793049     -1.16221832716301
  H   -0.15211892526641     -1.23630009856024      1.81653639829103
  C   0.11829319435680      2.92683026675162      1.19094025947405
  C   0.89607100518181      3.36475265833228      0.12754762001436
  H   0.00390873702018      3.52268961018061      2.09148280783927
  H   1.41369854327828      4.31491762209562      0.15575998971238
  H   1.57772327109107      2.78101798557202     -1.84092341501600
