17
Coordinates from ORCA-job opt
  N   -0.59443444137032      1.86930605117725     -0.96519872194253
  C   -0.43778520776155      1.04264518106040      0.08276730755916
  C   0.12375812631977      2.99547536225336     -0.94631934241447
  C   -1.24838560332488     -0.18067867063504      0.08599624905052
  N   0.34068783158555      1.26741807325903      1.15461809573626
  C   -1.42452796202047     -1.02074932079321     -1.04023750674336
  C   -1.82500184863431     -0.70648685588317      1.22790724911074
  C   -2.15436308503658     -2.14865008971254     -0.74140435356891
  H   -1.03928679642204     -0.78915879875988     -2.02444923820236
  S   -2.60857922875903     -2.17921702474522      0.90289177380278
  H   -2.44006980536120     -2.95492631463847     -1.40072529266785
  H   -1.80979546823001     -0.28610186624349      2.22270818774548
  C   1.03655199709726      2.40793428854188      1.15328692305675
  C   0.96896724390371      3.31886732403781      0.10719392663100
  H   1.66558424343003      2.58818448624861      2.01994154285620
  H   1.54165738701075      4.23720104048108      0.11535654695630
  H   0.00302161757331      3.65773813435161     -1.79843134696571
