17
Coordinates from ORCA-job opt
  N   -0.25630021901848      1.49574333694168      1.20117120596733
  C   -0.43126273644936      1.04592244578468     -0.05279849062863
  C   0.44045871270767      2.62673719975806      1.33675993067362
  C   -1.20312060375223     -0.18789182202136     -0.21460429517474
  N   0.01879201204198      1.64199580491003     -1.17064687138194
  C   -1.50679800261552     -1.08274549012707      0.84187763503627
  C   -1.68430158508393     -0.63221160649725     -1.43470263119971
  C   -2.21834372194852     -2.17694628205921      0.40817969918289
  H   -1.21369808432896     -0.91211388583518      1.86852871625613
  S   -2.50746155447907     -2.10879884627848     -1.27271904643244
  H   -2.58068993259680     -3.01230094370985      0.98912767484803
  H   -1.57974132050410     -0.14692817208670     -2.39358904491522
  C   0.70492911676757      2.77429971458496     -1.00676840613389
  C   0.95229334020357      3.31899978233590      0.24738387769781
  H   1.06612331218272      3.25369316662955     -1.91184787060318
  H   1.51333401633857      4.23645997620990      0.36863291294403
  H   0.58378925053488      2.98488462146033      2.35191500386365
