17
Coordinates from ORCA-job opt
  N   -0.51984890423098      1.81212631336820     -1.00111248193515
  C   -0.43263788134674      1.03774154615008      0.09391120954795
  C   0.19053928424491      2.94305870250585     -0.98777276576455
  C   -1.22987956931296     -0.19204686115143      0.09855498788578
  N   0.27387275239067      1.31818120097003      1.20238384973993
  C   -1.48193597760586     -0.97981547018839     -1.05165091559962
  C   -1.73653443207508     -0.76706872555791      1.25050897249461
  C   -2.19373177524007     -2.11965879850130     -0.75694179432662
  H   -1.15904865848556     -0.70218649210869     -2.04601666454563
  S   -2.54133519437058     -2.22473399794883      0.91086014455403
  H   -2.52360965362155     -2.89621351759196     -1.43120897846271
  H   -1.65997745220790     -0.38888702379669      2.25919074074326
  C   0.96310667796665      2.46186253974760      1.19348541399497
  C   0.96170417899782      3.32242900164761      0.10311080059048
  H   1.53286236906221      2.68702305912339      2.09014386944450
  H   1.52904415902305      4.24405773302906      0.10549481943559
  H   0.12541107681198      3.56293079030337     -1.87704320779680
