17
Coordinates from ORCA-job opt
  N   -1.01903107784936      2.08989462179467      0.63704269589859
  C   -0.48725240856436      1.08912012554803     -0.08313257090365
  C   -0.26411745794290      3.18456606836954      0.77818673400599
  C   -1.28637958596116     -0.14144504315874     -0.21497808217908
  N   0.73835604940409      1.07644209416048     -0.63280040908232
  C   -0.89933256589557     -1.39405456974176      0.31732038366250
  C   -2.55695627114990     -0.17349380646442     -0.75701155755050
  C   -1.86796885650072     -2.35778911985228      0.14552267054592
  H   0.05578888031902     -1.57465434732571      0.79328946476496
  S   -3.23808396740046     -1.72851953025953     -0.65043868973322
  H   -1.84098719574404     -3.39429162186687      0.44764244432135
  H   -3.10417497351293      0.64598809704282     -1.19981664101305
  C   1.47538024385987      2.17903429770251     -0.46675899247865
  C   1.01068791837650      3.28235557290888      0.23697799633351
  H   2.46520250865789      2.16806184875160     -0.91315957772530
  H   1.61535409046860      4.17098726850629      0.36447289267257
  H   -0.69848633056454      3.99660004388450      1.35354323846040
