17
Coordinates from ORCA-job opt
  N   -0.96133607659432      2.11919285834311     -0.56528266115390
  C   -0.46560646014434      1.06766808065952      0.10531334218055
  C   -0.22112013256287      3.23324209555068     -0.55271217829258
  C   -1.26692559344608     -0.17463906704433      0.09155687189027
  N   0.70158755105003      1.03091733702749      0.76693791471961
  C   -1.06872171295057     -1.23778532324899     -0.81915226609595
  C   -2.32167620522357     -0.41152821868498      0.95046962266278
  C   -1.96866078512492     -2.26440333239422     -0.63115769080179
  H   -0.29586991796964     -1.24870682213393     -1.57697268274353
  S   -3.04351028000788     -1.92285828054653      0.64571568443481
  H   -2.04686371498706     -3.19220749565658     -1.17829550587775
  H   -2.69437642655548      0.23225783786572      1.73390539159481
  C   1.42278245900167      2.15724627063264      0.76142575783298
  C   0.99768426397754      3.30620608512324      0.10808268868023
  H   2.36612831085698      2.12690603994696      1.29826227403611
  H   1.58885220323308      4.21294460991513      0.11091033466749
  H   -0.62436648255256      4.08434632464508     -1.09310589773415
