17
Coordinates from ORCA-job opt
  N   -1.13776388334100      2.24972736241643      0.08732697240574
  C   -0.48919966724871      1.07227921320955      0.08545778316527
  C   -0.37911398372651      3.34686251741967      0.12217754811768
  C   -1.30515723707559     -0.14292047402781      0.03401352727993
  N   0.84462345991287      0.91046346479914      0.09599067637119
  C   -0.82228470915884     -1.41052202896753     -0.37622345401428
  C   -2.65791386057135     -0.16565825019054      0.32826412388950
  C   -1.80934133822457     -2.36850456258352     -0.37442951416006
  H   0.20702417363175     -1.59525578352215     -0.65121437513651
  S   -3.30823842273553     -1.72090241738310      0.12250502992141
  H   -1.72828650293751     -3.41184381592752     -0.64175984195933
  H   -3.27056447706474      0.66455418625976      0.64680255859013
  C   1.57960648465417      2.02497565590172      0.12107740250926
  C   1.00906833193079      3.29081951344702      0.13865296036008
  H   2.65722931967193      1.89064646368306      0.12827894110873
  H   1.61442661393773      4.18765226546867      0.15996070616613
  H   -0.90611230165491      4.29642668999715      0.12901995538511
