17
Coordinates from ORCA-job opt
  N   0.54420950502106      1.23896038482657     -0.88698327852177
  C   -0.37256418003775      1.01409565627549      0.06716424599845
  C   1.16599673574593      2.42237858787750     -0.84568012738214
  C   -1.06030295663627     -0.29433540805415      0.04032995082381
  N   -0.71425623059824      1.86115686293622      1.05049339839074
  C   -2.20213269933209     -0.57962539679342     -0.74300582966304
  C   -0.67220229913609     -1.37218077738847      0.81110620423159
  C   -2.65537939760904     -1.86820103128676     -0.56024100099121
  H   -2.66787955760226      0.13040771867125     -1.41429436577681
  S   -1.69098570680044     -2.71301151698844      0.56164983658108
  H   -3.50066512836631     -2.35134474261854     -1.02752692405195
  H   0.15643991401138     -1.42701140751484      1.50211312198438
  C   -0.07558320403914      3.03629431181730      1.06972990739041
  C   0.88901542528044      3.37142132728186      0.12914492497892
  H   -0.35248085633828      3.72083454136641      1.86580741318536
  H   1.40000812879863      4.32530520662946      0.15470002941021
  H   1.90676150763847      2.60365368296256     -1.61860750658803
