17
Coordinates from ORCA-job opt
  N   0.40247164949285      1.31705338310148     -0.99132124647340
  C   -0.38590377582722      1.01919809447338      0.05426266858674
  C   1.02921729860201      2.49697989275100     -0.94559360481344
  C   -1.05777001690381     -0.29366093663387      0.02981960125334
  N   -0.57548052665177      1.78160369160253      1.14293381878364
  C   -2.10773093425251     -0.63629203410736     -0.85409492353830
  C   -0.80048022364349     -1.29284437531772      0.94835737847928
  C   -2.60923842538387     -1.89571075348253     -0.60934428406901
  H   -2.46737677913228      0.01353388681821     -1.64146606513346
  S   -1.80633811868729     -2.64157455266308      0.69609274179296
  H   -3.40376027863736     -2.41168506508757     -1.12781858459919
  H   -0.07398214152469     -1.28163579609104      1.74783932566843
  C   0.07041235616425      2.95249035693293      1.16632761601730
  C   0.89516762998189      3.36622235515742      0.12901868552438
  H   -0.08434953690262      3.56890790010284      2.04675604881645
  H   1.41160211310331      4.31701583700459      0.15860601842488
  H   1.66154171020261      2.73919711543876     -1.79447419472059
