17
Coordinates from ORCA-job opt
  N   0.98546093590611      1.00133580375313     -0.08651829775044
  C   -0.35388790556062      0.99462658959598      0.03023257517211
  C   1.58447022258725      2.19061851320113     -0.01048885376242
  C   -1.02776102459406     -0.30269011869016     -0.05354966705789
  N   -1.13035670763378      2.07610567572206      0.21043542683876
  C   -2.43505247990996     -0.47315135556124     -0.05196060807627
  C   -0.35243566981745     -1.50747340638159     -0.15732554615971
  C   -2.79847855440828     -1.79584548501300     -0.15137318644374
  H   -3.13388245638729      0.34847302664822      0.02103204052259
  S   -1.43233943943135     -2.81485875263984     -0.24564451939616
  H   -3.79351978822966     -2.21538499728589     -0.17444167846859
  H   0.71678207652908     -1.65529690320451     -0.18432269534733
  C   -0.50541920249857      3.25399731515519      0.28018212636978
  C   0.87412998215820      3.37052751128641      0.17490303455015
  H   -1.13664750477007      4.12568070714802      0.42534726856574
  H   1.37045342716318      4.33043751492411      0.23319551342127
  H   2.66648408889727      2.19169736134198     -0.10380393297785
