17
Coordinates from ORCA-job opt
  N   -0.78070019155742      2.01058141908902     -0.82418565387138
  C   -0.45218883777361      1.05803922520305      0.06364548569565
  C   -0.04945552028236      3.12925806458801     -0.79307380653443
  C   -1.27220685049112     -0.16800081789390      0.05995615596470
  N   0.51719349846078      1.14109865582139      0.98874588039205
  C   -1.25949769838158     -1.13328997060340     -0.97405116395510
  C   -2.06114845424738     -0.55416658435167      1.12613857866897
  C   -2.05731614343803     -2.21909284715063     -0.68755782712002
  H   -0.69594929670071     -1.02439254190447     -1.89173214782087
  S   -2.80312373536318     -2.05748772900988      0.83649596855347
  H   -2.23722568991728     -3.09520012980085     -1.29284689980185
  H   -2.22518976450845     -0.02111271414682      2.05135949311341
  C   1.22710596088699      2.27446252478784      1.00323242123247
  C   0.98294314114501      3.31476483050358      0.11691590362732
  H   2.01160945996558      2.34030675732252      1.75109268909927
  H   1.56536018208748      4.22688317754028      0.13729310923070
  H   -0.31220905988472      3.89614668000593     -1.51552918647435
