17
Coordinates from ORCA-job opt
  N   0.93976247749922      1.02550069955193     -0.28911724998940
  C   -0.34912125447213      0.98922839688425      0.09035173872047
  C   1.53790899276717      2.21827483895663     -0.24760252938450
  C   -1.03038666649105     -0.30664048888724      0.03002947336808
  N   -1.08569270137535      2.04510074084613      0.47567923707946
  C   -2.41761979424028     -0.46509008653400     -0.20970732135909
  C   -0.36923459052234     -1.51985150635710      0.11194177909231
  C   -2.78475194716792     -1.78874473770460     -0.28664048736167
  H   -3.10364754615816      0.36495201518210     -0.31024040271645
  S   -1.44404831671628     -2.82241393007294     -0.07105311206749
  H   -3.76764495377992     -2.20068103512367     -0.46199404297300
  H   0.68792249464536     -1.67904208920547      0.26484626248910
  C   -0.46558232129138      3.22763855057211      0.49563712720886
  C   0.86955753726759      3.37209414805794      0.14198491292797
  H   -1.06336109740246      4.07936919963034      0.80636790866172
  H   1.36258668324750      4.33529146813460      0.16292368228472
  H   2.58135300419045      2.24381481606899     -0.54750697598110
