17
Coordinates from ORCA-job opt
  N   -0.55720501444708      1.84057332464675     -0.98419477504728
  C   -0.43496949885416      1.04003922485758      0.08836697527618
  C   0.15695622945759      2.96917389026910     -0.96806390554857
  C   -1.23941314023387     -0.18618214003113      0.09231495454514
  N   0.30721465829126      1.29291695017469      1.17971172730868
  C   -1.45362851878817     -1.00010875776370     -1.04675578107967
  C   -1.78039314008015     -0.73690372688358      1.24030331716943
  C   -2.17396184677207     -2.13428311761038     -0.74956752526532
  H   -1.10026548756829     -0.74566026093476     -2.03712632790239
  S   -2.57434082626822     -2.20201331239042      0.90776405751197
  H   -2.48149035070289     -2.92558737614792     -1.41718237039659
  H   -1.73375306668753     -0.33754475572395      2.24269748012463
  C   0.99973533315113      2.43502030252101      1.17455013832220
  C   0.96526956958607      3.32065238607377      0.10518868057209
  H   1.59907560431029      2.63785741966828      2.05713352812276
  H   1.53527956811478      4.24065221684966      0.11044261382766
  H   0.06388892749132      3.61019673242500     -1.83968378754093
