17
Coordinates from ORCA-job opt
  N   -1.13394054425498      2.24625306769730      0.21375766967063
  C   -0.49255483680851      1.07604930485903      0.05011920001635
  C   -0.37317250291263      3.34044448084731      0.26816149883284
  C   -1.31309331656364     -0.13503007427845     -0.01431154504294
  N   0.83678764316311      0.92050221781019     -0.06661833895377
  C   -0.80484037539997     -1.43057327137006     -0.28407033113827
  C   -2.68574845966018     -0.13683774208303      0.17052099600838
  C   -1.79487155360456     -2.38513141703484     -0.29622283723213
  H   0.24256842108264     -1.63467569238966     -0.45738114337984
  S   -3.32699950066106     -1.70175407471720      0.01867936191408
  H   -1.69789277238393     -3.44603909465041     -0.47433229878875
  H   -3.31596980071421      0.71350358969222      0.38394206242991
  C   1.57439165457480      2.03214363926878     -0.01156179329835
  C   1.01120607708464      3.28983428823607      0.15829667843692
  H   2.64834576682942      1.90214361105164     -0.10683903301317
  H   1.61863885051460      4.18442328096968      0.20189234190808
  H   -0.89485475028555      4.28354288609144      0.40186751163003
