17
Coordinates from ORCA-job opt
  N   -0.92757787636506      2.10113163938447     -0.62591400065762
  C   -0.46335432122491      1.06703864082597      0.09255797586118
  C   -0.18872207060494      3.21592130527597     -0.60721463582959
  C   -1.26915417267200     -0.17280984315137      0.08076497399165
  N   0.66717294254859      1.05092763855908      0.81554942273135
  C   -1.10573305058814     -1.21865569964501     -0.85671388558377
  C   -2.27267754062557     -0.43838030409259      0.99084497313569
  C   -1.98563650794032     -2.25740955575753     -0.64258453320368
  H   -0.37301085139909     -1.20718672983784     -1.65340552951733
  S   -2.99789911992464     -1.94949654503874      0.69267627264456
  H   -2.08238649229783     -3.17612964022370     -1.20197911164021
  H   -2.60612141149193      0.18440961864901      1.80824052668869
  C   1.38685433451724      2.17833983821740      0.81683362985531
  C   0.99560377264229      3.30834780713197      0.11141609919343
  H   2.30086849295083      2.16455035603314      1.40285691610529
  H   1.58548058032550      4.21589454699755      0.12002154379894
  H   -0.56570670785004      4.05230892667221     -1.18805363757388
