17
Coordinates from ORCA-job opt
  N   0.45047153611134      1.29200491805084     -0.96193312709610
  C   -0.38159774920941      1.01791146684453      0.05556072874468
  C   1.07574265924791      2.47297906637731     -0.91620868751289
  C   -1.05808657125469     -0.29419341797586      0.03029922627700
  N   -0.62198835210898      1.80739757546192      1.11422395387961
  C   -2.14014743967477     -0.61782568628114     -0.82107254118543
  C   -0.75703823975416     -1.31894147411154      0.90586864309481
  C   -2.62609195714279     -1.88657249123003     -0.59255219516014
  H   -2.53539001117551      0.05185688900988     -1.57403514865453
  S   -1.76834803403895     -2.66489789926871      0.65753045670596
  H   -3.43837733151653     -2.39187074116182     -1.09372705768143
  H   0.00403558014643     -1.32945326845754      1.67254592880723
  C   0.02174669051344      2.97961856679968      1.13792382533736
  C   0.89363431411253      3.36791918403326      0.12976093328081
  H   -0.17391465593306      3.61789472843164      1.99429077841376
  H   1.40848167059349      4.31958657927219      0.15938853789698
  H   1.74486789108371      2.69538700420538     -1.74196225514769
