17
Coordinates from ORCA-job opt
  N   -0.85523969240324      2.05943934452674     -0.73605263362009
  C   -0.45755896931028      1.06338707540519      0.07129098656198
  C   -0.12041719032934      3.17637108949394     -0.70731675090044
  C   -1.27184645718149     -0.16958248004639      0.06371677075853
  N   0.59341131096266      1.09403462985679      0.90552389293212
  C   -1.18359941878359     -1.17800737482221     -0.92372685542010
  C   -2.16587991800479     -0.49455705638567      1.06456842985130
  C   -2.02089386981305     -2.24110490310444     -0.66425341711397
  H   -0.53702952212930     -1.11953115908341     -1.78987280861275
  S   -2.89836654300219     -2.00395943543783      0.77703515628445
  H   -2.15921312150958     -3.14043599626152     -1.24596177916159
  H   -2.41421241295039      0.08422440005153      1.94235201894529
  C   1.30814094505928      2.22463696745928      0.91766061472832
  C   0.98895005788295      3.31258961392832      0.11649984906005
  H   2.15834564693020      2.24839062763926      1.59264731845425
  H   1.57477683921235      4.22259986515994      0.13462978221474
  H   -0.44136568463021      3.98030479162048     -1.36284257496210
