23
Coordinates from ORCA-job opt
  C   0.83710117243656      1.06023954949929      0.45696511034583
  N   1.12349902947408      0.27378768504578     -0.62386789377759
  C   1.55592800801230      2.30366074296645      0.66363111348146
  C   -0.10008744278442      0.59975512933011      1.35322192761470
  C   0.53590483379585     -0.95688899826225     -0.95563918763384
  H   1.73727830480677      0.61606822620544     -1.35156243242478
  C   -0.44522456878040     -1.39137078610311      0.00310092255052
  O   0.88008485958623     -1.53254339799571     -1.98655344550415
  C   -0.74692697842078     -0.62812430632245      1.09909291327584
  H   -0.93857138522133     -2.33454267482792     -0.19204251954994
  H   -1.49314102699506     -0.98348661977780      1.80233342404865
  H   -0.30507384726499      1.16939636585899      2.24812005470591
  N   2.73890064013707      2.66806991614262      0.05199607856459
  C   1.10331468178255      3.41557879628742      1.38012291821090
  C   3.67398600091656      1.82170348406700     -0.67280141286718
  C   3.04614503682956      3.95683743165555      0.40187813151525
  H   3.41086092431454      1.74082191413916     -1.73015106289293
  H   4.66202014775902      2.27270303067299     -0.60489882705049
  H   3.71520664581240      0.82927777374204     -0.22656901896805
  C   2.04359817213837      4.44542928098884      1.22026643114222
  H   3.96426620462094      4.40734970583519      0.05773996024519
  H   2.00116829801085      5.43855635148931      1.63911054949201
  H   0.16696028903330      3.46612039936307      1.91420726547589
