23
Coordinates from ORCA-job opt
  C   0.87131359471903      1.03984229830113      0.50599074596817
  N   1.51822431652576     -0.02720361297247     -0.05285256551594
  C   1.59799931134443      2.27401886906783      0.73329736617062
  C   -0.46369716454641      0.90288526778865      0.80448123714663
  C   0.97170537657807     -1.28474743282518     -0.34854563894372
  H   2.51979948327995      0.01173493980851     -0.19756772939452
  C   -0.42379104140312     -1.38716439550289     -0.00681244208920
  O   1.68539012818195     -2.15803490715279     -0.83835328667230
  C   -1.09546420318477     -0.33526551437498      0.55570627820983
  H   -0.90693145344090     -2.33552717017858     -0.20281467315107
  H   -2.14643476506855     -0.44875095630200      0.80103939639835
  H   -1.00798147448810      1.75082596013548      1.19551705315931
  N   2.69842749249347      2.69231737945656      0.01435038907395
  C   1.40736008848938      3.18680994448667      1.77259450496281
  C   3.19240026621540      2.15625339863989     -1.24425370649268
  C   3.17488605227314      3.85413414854883      0.56176762164477
  H   2.36666821051514      1.76925495633478     -1.83881516980076
  H   3.67115330166993      2.96342878291380     -1.79551166304408
  H   3.92931549420350      1.36566881252747     -1.08565554462827
  C   2.39520906068369      4.17947794829072      1.65785767054779
  H   4.01360404553666      4.36243876208665      0.11159732553771
  H   2.54076576865662      5.03275465216965      2.30154700579546
  H   0.65727611076569      3.09324886875225      2.54313682511714
