23
Coordinates from ORCA-job opt
  C   0.83489006593242      1.07112290976752      0.45597546277585
  N   1.02358683292282      0.36548433290798     -0.70001540460093
  C   1.51901246913090      2.33785327308960      0.63039538387639
  C   0.01129179098621      0.53450926394879      1.41642995878227
  C   0.45206096659464     -0.87027500890458     -1.03574385214213
  H   1.55094937952409      0.77939437744148     -1.45952767982245
  C   -0.41388595161001     -1.38807925239645     -0.00706086178207
  O   0.70718791436693     -1.38454980352880     -2.12298065899970
  C   -0.62522792963495     -0.69957425680492      1.15697601293617
  H   -0.89599520019748     -2.33634389472774     -0.20623769329897
  H   -1.28487115773179     -1.12064408296567      1.90874362650710
  H   -0.10975267003757      1.05202484013008      2.35762734038942
  N   2.74619304530129      2.65270259789691      0.08581752320361
  C   1.04021088790082      3.48100021000146      1.27212912602427
  C   3.69106695619876      1.74613596746709     -0.54666848299814
  C   3.05224294562996      3.95146842670665      0.39471535228312
  H   3.53204641271903      1.68468912455863     -1.62552711541480
  H   4.69742492938786      2.12108025393280     -0.36942792711446
  H   3.60630789313043      0.75203325263537     -0.11117293881169
  C   2.00757080777786      4.49024368936346      1.12551171539146
  H   3.99580349586275      4.37535421139901      0.08727202209248
  H   1.95573807536079      5.50240372188466      1.49493319453539
  H   0.07334904048423      3.56036484619665      1.74553689618780
