23
Coordinates from ORCA-job opt
  C   1.03264954464668      0.94096190523669      0.49531149563906
  N   1.50002919125495     -0.23169978409765      1.02056693386282
  C   1.79522744225705      2.13616554488570      0.82307750059351
  C   -0.09161987546696      0.90757030993204     -0.29015459320941
  C   0.92778190061320     -1.50114471344482      0.87545960330731
  H   2.34830424231797     -0.20402556133114      1.57840670997613
  C   -0.24582533159550     -1.49331195274846      0.03329291700886
  O   1.43506527396731     -2.47713901034201      1.42224095407578
  C   -0.72193895528698     -0.33836743812857     -0.52286857555463
  H   -0.72598475211326     -2.44851038282061     -0.13654520177425
  H   -1.61041697136486     -0.37468592692318     -1.14476268519994
  H   -0.49477314381065      1.82996096054102     -0.68446063810736
  N   2.32135911837711      2.97882336058057     -0.12757777405451
  C   2.20921513584283      2.59740906955342      2.07263134171709
  C   2.16438936464499      2.86124300772904     -1.56497734652566
  C   3.03277008059460      3.96850721280074      0.49262039531642
  H   1.25369946742125      3.35667402345555     -1.90506042013461
  H   3.02402968534073      3.32563090643694     -2.04560666155025
  H   2.12187178194778      1.81009582086237     -1.84546642302247
  C   2.97921598484163      3.75662435356932      1.86035111841326
  H   3.52411763339400      4.73391232669753     -0.08790896010497
  H   3.44453017285888      4.37591494940466      2.61108511341752
  H   1.94350400931724      2.14779101815085      3.01804719591026
