23
Coordinates from ORCA-job opt
  C   0.88008981715984      1.03954539986815      0.51168608353256
  N   1.55231838782128     -0.05360618683837      0.03847319417312
  C   1.62242520268986      2.25873069793489      0.77083760545079
  C   -0.47318707856773      0.93175703635638      0.72017783654517
  C   1.00721116629866     -1.30810651503400     -0.26965949102282
  H   2.56228880239004     -0.02358834228266     -0.03964543592123
  C   -0.41142946160327     -1.38048312442218     -0.02269774715985
  O   1.73549688665409     -2.20474244127904     -0.68981070227436
  C   -1.10577600614232     -0.30536181567920      0.46164707829830
  H   -0.89413627132719     -2.32711898373910     -0.22825022692699
  H   -2.17295177899379     -0.39856520722961      0.63472326034375
  H   -1.02598835830998      1.79985926679347      1.05065731427771
  N   2.67358077285737      2.70870570898791      0.00105399460552
  C   1.47105946934206      3.14619920694834      1.83606747014853
  C   3.11194300147084      2.17992778624037     -1.28010443762846
  C   3.16763419341942      3.86188778542282      0.54957340635048
  H   2.26296084463087      1.77123007254569     -1.82536718206396
  H   3.54216068586077      2.99510592142315     -1.85901334772287
  H   3.87071137888817      1.40400313178604     -1.15914521969010
  C   2.44297819634831      4.15265119927827      1.69266494454751
  H   3.97952101146188      4.38763307726062      0.07113245759158
  H   2.61286013725898      4.99321736869585      2.34698536726837
  H   0.75542900039185      3.02951895696219      2.63571477727725
