23
Coordinates from ORCA-job opt
  C   0.82842879807034      1.09984431694232      0.36023890671962
  N   0.25374053360395      0.76021592503662     -0.83402545901558
  C   1.44170092578987      2.42438373622023      0.43852747021265
  C   0.82735144559140      0.18148878237210      1.37639436202772
  C   -0.37933644914479     -0.44951676352920     -1.14331241908649
  H   0.25514774851052      1.44802869063746     -1.58136259630398
  C   -0.35283299034224     -1.39045078484170     -0.04661574428070
  O   -0.87604132625530     -0.62693716393436     -2.25259189948139
  C   0.22554203816242     -1.08159596520491      1.15287961506716
  H   -0.81835145236609     -2.35151429312616     -0.22463652206811
  H   0.21823329506857     -1.81537684764924      1.95212773485318
  H   1.26723328417464      0.44509730985109      2.32836176263548
  N   2.80339749143753      2.59678307729364      0.36141069523044
  C   0.85875176979435      3.68611295845393      0.51537884294263
  C   3.78381373619905      1.52997329119030      0.29816240228484
  C   3.09364733474202      3.93181099799421      0.41066923500818
  H   4.71028285905500      1.93442378067321     -0.10608152887530
  H   3.97487771923319      1.11206341229336      1.28769459029384
  H   3.42630827144305      0.73648565022214     -0.35736402745377
  C   1.90287654784938      4.63319304367989      0.50464727570380
  H   4.11682194698191      4.27197731772494      0.37039564881000
  H   1.80784050789985      5.70648391149678      0.55640083933937
  H   -0.20223403549860      3.87542661620333      0.58040181543640
