23
Coordinates from ORCA-job opt
  C   0.86966299248879      1.06871184767434      0.30400143635866
  N   0.06346652060748      0.83457607741046     -0.77521187311789
  C   1.47426871396762      2.39043173223408      0.37451188712321
  C   1.05228469640262      0.06273598843823      1.21872300459333
  C   -0.64995139503348     -0.33856797132782     -1.04867398875214
  H   -0.04559682149875      1.57393609403417     -1.46294244427199
  C   -0.42111461594447     -1.37443985529682     -0.06823300350058
  O   -1.36318321485208     -0.41339748780010     -2.04595599205729
  C   0.39768491617369     -1.17466557220392      1.00859263128375
  H   -0.92858759132522     -2.31647563479599     -0.23206702421025
  H   0.53812894827114     -1.97684563896275      1.72570297058147
  H   1.65816337109299      0.24249695312275      2.09588381931388
  N   2.83083366538445      2.59474526110322      0.46735139694372
  C   0.86435313719558      3.64068035846020      0.27254842741336
  C   3.85188590744596      1.56902536775794      0.56701624163991
  C   3.08566251053478      3.93825507993122      0.45092426566953
  H   4.77935822735641      1.96348982758622      0.15490588820577
  H   4.01788038303658      1.27594839169097      1.60481011708860
  H   3.55008265137576      0.69297751860651     -0.00468933232539
  C   1.88147881955358      4.61213809447925      0.33145841357183
  H   4.09911587514882      4.30284567851281      0.51625255221816
  H   1.76169606563490      5.68355003760891      0.29447177787604
  H   -0.20037576301716      3.80624785173608      0.19831982835430
