23
Coordinates from ORCA-job opt
  C   0.89234477966414      1.05432409993347      0.26857778791558
  N   0.00377772069506      0.85231637325024     -0.75058951216339
  C   1.49276911586764      2.37553628013034      0.32990718385456
  C   1.12881894409074      0.02541308056511      1.14618458661829
  C   -0.74017949836783     -0.30764831643322     -0.99710293827420
  H   -0.14062122386344      1.60275914775410     -1.41936660844156
  C   -0.45226408875110     -1.36805890159145     -0.06000159720476
  O   -1.52408218164254     -0.35222465883735     -1.94182736260905
  C   0.44658867581458     -1.19987712967709      0.95675314605838
  H   -0.97979866437944     -2.30177903845777     -0.20677299628716
  H   0.63011683126863     -2.01907044407250      1.64434506441415
  H   1.79136253235908      0.17857760751511      1.98614384169812
  N   2.83897270570011      2.59615054564730      0.50282789799821
  C   0.87669617510550      3.61876761333160      0.17804518090763
  C   3.87287101437596      1.58855415158043      0.64747232635147
  C   3.07992163748701      3.94249007641552      0.47982768008565
  H   4.80853244255384      1.99801347226385      0.27001001014878
  H   4.00434972076098      1.30338256020933      1.69238396824315
  H   3.60907308879109      0.70514243137308      0.06853409626334
  C   1.87816603331778      4.60168075026295      0.28178969523248
  H   4.08468957461219      4.31880075413212      0.59448091424150
  H   1.74985336624489      5.67117947682324      0.22441043740320
  H   -0.18475970170490      3.77396906788159      0.05166719754563
