23
Coordinates from ORCA-job opt
  C   0.83515326135371      1.06840946920068      0.45740220400851
  N   1.05034825729600      0.34279503998280     -0.68126287136799
  C   1.52912404735339      2.32843890734611      0.64087529232104
  C   -0.01811841026744      0.55047709552443      1.40280354439036
  C   0.47424386744017     -0.89133439188788     -1.01676857234062
  H   1.59900419096268      0.73989275822048     -1.43419077597562
  C   -0.42217252000968     -1.38844016811913     -0.00483900045746
  O   0.75253906228623     -1.42028526185097     -2.09131598225512
  C   -0.65754496611566     -0.68159783884530      1.14365476664533
  H   -0.90735388956907     -2.33517505634899     -0.20364879031899
  H   -1.33999416173839     -1.08652030478758      1.88386233839212
  H   -0.16014909285222      1.08029110374495      2.33408305625992
  N   2.74371145519843      2.65653513980812      0.07525062960457
  C   1.05656985913949      3.46406208572689      1.30172867900506
  C   3.68820644212968      1.76435806417102     -0.57851293767652
  C   3.04926184563332      3.95344717693431      0.39330098269845
  H   3.50627461134674      1.70033331755756     -1.65369831351775
  H   4.69181016667802      2.15657237164369     -0.42498931359804
  H   3.63150930569548      0.76932063463276     -0.14057429315165
  C   2.01586153992478      4.47932153264706      1.14874606641299
  H   3.98578823965501      4.38445178924382      0.07450946825456
  H   1.96582701023354      5.48720178091245      1.52989904618629
  H   0.09730087822576      3.53584475454269      1.79138677648055
