23
Coordinates from ORCA-job opt
  C   0.94675961509564      1.02005005854361      0.17167708706080
  N   -0.10567310421883      0.88337336825690     -0.69116322677384
  C   1.54843718259457      2.33822705348670      0.20515732737992
  C   1.27470537596437     -0.05205324883029      0.96774739622989
  C   -0.91038474235522     -0.24766212993798     -0.86899102834873
  H   -0.32154282278454      1.65183663898289     -1.31795999842296
  C   -0.52143021050999     -1.35345112201701     -0.02663368701528
  O   -1.82636735041032     -0.23097367711290     -1.68724248893631
  C   0.52743280773041     -1.24693632871536      0.84338667089530
  H   -1.09423739127311     -2.26660952703591     -0.12341285927101
  H   0.78686553669032     -2.09576213027572      1.46782049044221
  H   2.04840402383863      0.04067461416116      1.71393084371418
  N   2.84943819368047      2.59901460490442      0.56864010227207
  C   0.92541394247074      3.56743745428298     -0.03228377705306
  C   3.90743876987527      1.63504552848089      0.81011222514275
  C   3.05723991724367      3.95173035245266      0.55379305667818
  H   4.86009041798504      2.10860756942419      0.57874202118788
  H   3.91855880208524      1.31009893773712      1.85153445282616
  H   3.77388704641864      0.76881783417151      0.16435327267356
  C   1.87800945935775      4.57711298904498      0.18805699417488
  H   4.03135576028956      4.35453069516497      0.78453054532010
  H   1.73076348145474      5.64217314401707      0.10216268867911
  H   -0.11796671122306      3.70312032081314     -0.27625610885582
