23
Coordinates from ORCA-job opt
  C   0.92037409843367      1.02341195735774      0.53057566919757
  N   1.61286053541840     -0.13792726889019      0.31527466669036
  C   1.69231369989241      2.21823880313226      0.84793318005138
  C   -0.44793221953695      0.99386022848299      0.46482291533315
  C   1.07120289983389     -1.38895543624440     -0.00270383966728
  H   2.62135669661094     -0.13576275558189      0.42913970367664
  C   -0.37234703927907     -1.37663030389571     -0.05577620890116
  O   1.80802271689501     -2.35421704648367     -0.18976731473059
  C   -1.08933870816158     -0.23614593352756      0.17740269976001
  H   -0.85581476728810     -2.31882645381322     -0.28032479257394
  H   -2.17279562085476     -0.27054012011347      0.13006512370830
  H   -1.00124046556212      1.90977358977202      0.61846723730111
  N   2.57691448421167      2.77919194739608     -0.04479916544296
  C   1.67679320268619      3.01704372573828      1.98746820574494
  C   2.86585731213844      2.28100469220676     -1.37652832843111
  C   3.12378186218513      3.90351906727394      0.50893436763010
  H   1.96002236944270      1.86449601080494     -1.81623518484583
  H   3.20842880058449      3.11068386382174     -1.99252817782769
  H   3.63939359525480      1.51113156613037     -1.35692635987485
  C   2.58369494271351      4.07409258213042      1.77304664388978
  H   3.84138391231077      4.49180133993986     -0.04190407295042
  H   2.82401383704768      4.87409366641104      2.45564343447322
  H   1.08025285502288      2.82506127795164      2.86641959778927
