23
Coordinates from ORCA-job opt
  C   0.96911837364908      1.00398358340514      0.12659887174330
  N   -0.15942867076906      0.90243715004070     -0.64062563648652
  C   1.57841319510217      2.31970374215229      0.14553673470705
  C   1.34254864639957     -0.09660993864037      0.86362128454679
  C   -0.98712152833296     -0.21547392095480     -0.78933987083636
  H   -0.41884878461072      1.68482306345210     -1.23173281396611
  C   -0.55058381268402     -1.34873050591295     -0.01043336591306
  O   -1.96342293046360     -0.16395243676454     -1.53325568272624
  C   0.56722184041427     -1.27662718835773      0.77204569004830
  H   -1.14303615313141     -2.25144732490094     -0.08331860650940
  H   0.86605725895093     -2.14400117666855      1.35181524568081
  H   2.17489322320059     -0.04528600798132      1.54580906017817
  N   2.84819791017556      2.60120999071808      0.59799109604552
  C   0.96089134906212      3.54313874893580     -0.14064780000425
  C   3.91159961099187      1.66125043240916      0.90359690039410
  C   3.04375165656135      3.95588044292882      0.57835573802640
  H   4.86332533791584      2.17564013928713      0.78278652403074
  H   3.83706814947664      1.29674319340037      1.92910686425302
  H   3.87477746310825      0.81830022215179      0.21539247961331
  C   1.88608971406115      4.56485789619988      0.12838880090282
  H   3.99763323775448      4.37046233421183      0.86566568519065
  H   1.73363365876453      5.62702887077690      0.01938055429469
  H   -0.06557574559664      3.67506869011119     -0.44903675321373
