23
Coordinates from ORCA-job opt
  C   0.86964186655613      1.03826985611337      0.50345729397392
  N   1.49993676357212     -0.01631918192163     -0.09617397656489
  C   1.58929017368618      2.27932244704462      0.71661459725663
  C   -0.45405363294251      0.88778459655072      0.84530800670615
  C   0.95128286353840     -1.27461561733313     -0.38663774430709
  H   2.49526410346860      0.02666543062048     -0.27564489976377
  C   -0.43061776562854     -1.39051790507695      0.00042667888527
  O   1.65460874531014     -2.13658624869062     -0.91058469022182
  C   -1.08731542699204     -0.34974826058238      0.60040717074412
  H   -0.91531279653995     -2.33883282580525     -0.19171682159751
  H   -2.12863447471649     -0.47199278505886      0.88030908257141
  H   -0.99104613992590      1.72538297587867      1.26714918409750
  N   2.70812376431390      2.68753245009608      0.01961695168952
  C   1.37941398112999      3.20402449076543      1.74263168496516
  C   3.23163813296451      2.14475457905343     -1.22430036449897
  C   3.17355362597532      3.85522758006537      0.56456515740451
  H   2.41901421205707      1.77733167437341     -1.84872778506664
  H   3.74459880688822      2.94403129493138     -1.75579833515213
  H   3.94844019100195      1.34013503924552     -1.04468080758987
  C   2.37045436739108      4.19385898422415      1.63921206704523
  H   4.02201760773165      4.35784058497430      0.12648459189155
  H   2.50262765224144      5.05408749048170      2.27648298556584
  H   0.61427237891873      3.12076335005016      2.49930197196589
