23
Coordinates from ORCA-job opt
  C   0.82461606212354      1.10347814106330      0.38325367854533
  N   0.46510519291794      0.66176168208142     -0.86195962170273
  C   1.43782619050714      2.42915060112508      0.46424811766775
  C   0.60050173513228      0.28916859825043      1.46050066667454
  C   -0.11963374380132     -0.57097030674202     -1.17526314824695
  H   0.59650633627615      1.28483382954605     -1.65301128240564
  C   -0.33680900264794     -1.39873076681802     -0.01032913770293
  O   -0.39638080769871     -0.85144239296970     -2.33861560466866
  C   0.00490435252686     -0.97888050976411      1.24452569491275
  H   -0.79215961146650     -2.36542243418556     -0.18419667768829
  H   -0.18050257528303     -1.62975270291355      2.09259888389574
  H   0.88081287504707      0.63154441041651      2.44693975693751
  N   2.78231833215940      2.61322452198270      0.23967989972236
  C   0.88110616500015      3.67183299443771      0.74650910187570
  C   3.74597544799995      1.54941210270810      0.03203924858488
  C   3.08797290269770      3.93765812215943      0.38691099839979
  H   4.63270031312618      1.96831109940191     -0.44086091905119
  H   4.02632035677996      1.08719614254842      0.98005254280878
  H   3.32333124261343      0.78684627078656     -0.62148640560329
  C   1.92353129654353      4.62065912533714      0.69626364078178
  H   4.10187813940241      4.28386104510846      0.25845545892682
  H   1.84160120189043      5.68480224194094      0.85315683732937
  H   -0.16432540184663      3.84985818449876      0.94828927000657
