23
Coordinates from ORCA-job opt
  C   1.11409676104274      0.89043597981492      0.43259371116997
  N   1.42441558616209     -0.23741124812517      1.14059261914574
  C   1.89423001835962      2.06691053839705      0.76402072212951
  C   0.07657969435159      0.83122346146231     -0.46641574640479
  C   0.78412810169507     -1.48003993365657      1.06690088048047
  H   2.21920578278331     -0.20855796722293      1.77157095266823
  C   -0.28796245366400     -1.50316399897904      0.10005111597765
  O   1.16158170701086     -2.41289173804576      1.77120884278332
  C   -0.61282211772633     -0.39341647159932     -0.62951876868094
  H   -0.81478886992685     -2.44081755299876     -0.02117554534931
  H   -1.43076268072096     -0.44708180685353     -1.34067308928967
  H   -0.23404939278592      1.72183238865312     -0.99203634521237
  N   2.26583642589197      3.03367170471342     -0.14076051582671
  C   2.37896789516247      2.45273181792416      2.01630558877261
  C   2.05814550076034      3.01651874063158     -1.57700862623754
  C   2.96748582483095      4.01138113306619      0.51069831585487
  H   1.10163946996619      3.46781370122448     -1.84484888278145
  H   2.86071319321908      3.58291458939397     -2.04665394383998
  H   2.08416256614835      1.99091306737129     -1.94085311071027
  C   3.04965634492435      3.67778070060952      1.85185430996568
  H   3.36494806351009      4.85236847949467     -0.03623326295528
  H   3.53474627678185      4.26331794840831      2.61687960726374
  H   2.20704730222312      1.92196346631610      2.94120017107652
