23
Coordinates from ORCA-job opt
  C   0.88220580533303      1.03948977452622      0.51221073722076
  N   1.55951088429749     -0.06061892834680      0.06206919413977
  C   1.62839694792893      2.25504326974831      0.77896957433955
  C   -0.47470432645311      0.93876320901304      0.69760166258585
  C   1.01505986188233     -1.31444927467171     -0.24770102281987
  H   2.57099997192872     -0.03260882856265      0.00189905136978
  C   -0.40843385651845     -1.37908737235335     -0.02651787009370
  O   1.74643132592954     -2.21759035121596     -0.64805144337046
  C   -1.10780980737845     -0.29810057526745      0.43672081305789
  H   -0.88982716803977     -2.32601249438323     -0.23414758706308
  H   -2.17835986125422     -0.38531418170143      0.59102658310743
  H   -1.02998066189216      1.81104207028280      1.01275409283321
  N   2.66630385903320      2.71363945894302     -0.00272404254947
  C   1.48823204362643      3.13530443728314      1.85130430434249
  C   3.09091788154434      2.18770083545495     -1.28956759267334
  C   3.16661304565314      3.86336855703943      0.54689686427807
  H   2.23742247425690      1.77072920929891     -1.82157350489711
  H   3.50539328864613      3.00578838899958     -1.87590546118550
  H   3.85718121346558      1.41778218140216     -1.17797432421311
  C   2.45608467435898      4.14493019003689      1.70134897864863
  H   3.97213011564010      4.39308335481254      0.06215294205882
  H   2.63155711352841      4.98224028970279      2.35846220177374
  H   0.78187517448289      3.01327577995878      2.65844484910964
