23
Coordinates from ORCA-job opt
  C   0.95636877657730      0.99648821534049      0.54786174202797
  N   1.58776572291607     -0.20969121574787      0.68356941293537
  C   1.73654020343863      2.19168719856925      0.86959091899046
  C   -0.33909970323892      1.01555717875149      0.10446327054035
  C   1.04428122867339     -1.47258864794835      0.42041760284476
  H   2.54060532784963     -0.21886817546176      1.03473857085554
  C   -0.32088619003341     -1.40637289554150     -0.04975409332583
  O   1.71463577572104     -2.48748924899044      0.59156672514385
  C   -0.97484036963313     -0.21508757233762     -0.19602118249226
  H   -0.79985233303160     -2.35088880912679     -0.27456148178141
  H   -2.00184562008674     -0.21103492022279     -0.54601553664142
  H   -0.84733798820220      1.96442949635183      0.00217122604795
  N   2.42182860639479      2.88935408577560     -0.09800755232190
  C   1.96043392036959      2.82523097715107      2.08757692807690
  C   2.54060871858545      2.49629680255624     -1.48873376094091
  C   3.07545875077833      3.94106952822674      0.48126790890529
  H   1.60815013927962      2.03942156089516     -1.81815506563017
  H   2.73460573797860      3.38261424762646     -2.09075626254621
  H   3.35536034082439      1.78288261327604     -1.62602657658674
  C   2.80312035673036      3.92841716147774      1.83910739450507
  H   3.67440552169966      4.61040360736673     -0.11674979142298
  H   3.16166855899018      4.64764728263850      2.55874786285396
  H   1.53522551741894      2.51892152937377      3.03140173996237
