23
Coordinates from ORCA-job opt
  C   1.09641916683152      0.90146855864166      0.44506789390566
  N   1.43788207580238     -0.23694369702018      1.12081906954375
  C   1.87190159800935      2.08169161055310      0.77726603749364
  C   0.04378701665410      0.84774822292267     -0.43598963804555
  C   0.81137256753551     -1.48571511076444      1.03405591649171
  H   2.24297467165893     -0.20844395016085      1.73882282170053
  C   -0.27885825613366     -1.50226513135836      0.08758645360587
  O   1.21409699385598     -2.42848849199295      1.71076527636801
  C   -0.63256496988362     -0.38237156654916     -0.61274423172876
  H   -0.79567358566678     -2.44429366434568     -0.04288733116663
  H   -1.46290498322904     -0.43256565475384     -1.30962535283983
  H   -0.28453429908290      1.74566689815984     -0.93864240212962
  N   2.27538499808039      3.02469324782024     -0.13875033733834
  C   2.34557204840612      2.47960663031726      2.02944458275742
  C   2.07700007720551      2.98850771901486     -1.57579702127040
  C   2.98229462943137      4.00270683853755      0.50621992875557
  H   1.13029236362048      3.45216244729611     -1.85716920265807
  H   2.89277065084372      3.53254448993297     -2.04916479097689
  H   2.08599974076833      1.95678333334393     -1.92303604065110
  C   3.03831541522710      3.69109926372994      1.85417766608468
  H   3.39882140920951      4.82937969713275     -0.04828721488248
  H   3.52193903487382      4.28158886591933      2.61638085759824
  H   2.15491363598186      1.96383944362322      2.95918805938257
