23
Coordinates from ORCA-job opt
  C   0.83253006350115      1.08882925106717      0.42370721081394
  N   0.82927440638676      0.49793237337521     -0.81105572697625
  C   1.46477412490307      2.39296066200086      0.55050405545215
  C   0.21643299488989      0.44002588503392      1.46261438939037
  C   0.27617331254687     -0.74452694777273     -1.14402746368233
  H   1.21682188016593      1.00361551202439     -1.60067031729372
  C   -0.36934025037829     -1.38850256168303     -0.02453115352043
  O   0.35860433562031     -1.16933300473380     -2.29422270060121
  C   -0.40074434071033     -0.80976739775008      1.21415383779972
  H   -0.83433750854941     -2.34646467500068     -0.21909763395429
  H   -0.89742054005173     -1.32623636716021      2.02896667325777
  H   0.23404368750990      0.88751352106360      2.44651873140138
  N   2.77098182930427      2.62837730121407      0.18428866223133
  C   0.94626271281607      3.58200340183429      1.05676605197614
  C   3.70687849897074      1.64420798550010     -0.32832051080125
  C   3.08193722722868      3.93480888658095      0.44420612612301
  H   3.63967017751008      1.55300904309801     -1.41406811541399
  H   4.71651135856874      1.95389136630833     -0.06392728579868
  H   3.50538084870178      0.67412455403837      0.12432188942900
  C   1.96526266163700      4.55151322016742      0.98371293299462
  H   4.07062142109910      4.31349385255472      0.23540693429599
  H   1.90295045732841      5.58580174814285      1.28379925937242
  H   -0.06607035899900      3.71112139009626      1.40865015350432
