23
Coordinates from ORCA-job opt
  C   1.06359103511742      0.92174619169743      0.46961104024447
  N   1.46601842348271     -0.23463177976243      1.07780774958375
  C   1.83166541560795      2.10934434814584      0.80058794910280
  C   -0.02075260648879      0.87758683695966     -0.37123356440842
  C   0.86654294565344     -1.49458215469020      0.96416474001021
  H   2.29070573907105     -0.20561910006152      1.66969226686254
  C   -0.26086271107958     -1.49967943690617      0.06169250524220
  O   1.31847186779896     -2.45423145223422      1.58370288314625
  C   -0.67263421711358     -0.36180294592843     -0.57524742773760
  H   -0.75853449816789     -2.44925057678736     -0.08765710626641
  H   -1.52871085001674     -0.40576032818201     -1.24063721452782
  H   -0.38459430073747      1.78822899814329     -0.82544195379404
  N   2.29590307471411      3.00459799086034     -0.13420622022273
  C   2.28083321359912      2.53384727097832      2.05209745214999
  C   2.11514654835634      2.93141543215361     -1.57194401427533
  C   3.00864555587162      3.98565376822204      0.49883676259114
  H   1.18910322562815      3.41933743906258     -1.87988202721926
  H   2.95629851911899      3.42998959794084     -2.05098909636550
  H   2.08962031337055      1.88961746778415     -1.88687338551776
  C   3.01346451021889      3.71932478667662      1.85788561840799
  H   3.46171496038956      4.78346769888528     -0.06908468508124
  H   3.49129369640036      4.32135008255139      2.61474022748762
  H   2.05427113920482      2.04845186449093      2.99007850058714
