23
Coordinates from ORCA-job opt
  C   1.07865526675843      0.97748695338884     -0.16280921572607
  N   0.09948818483608      0.84099109733458      0.78423859399019
  C   1.78511945176703      2.24927844384223     -0.22570893265686
  C   1.31820941098585     -0.06928603747764     -1.01455377825189
  C   -0.69363721487681     -0.28990606849297      1.01191366843877
  H   -0.13151240262282      1.63616614951544      1.37082152616591
  C   -0.41405867191506     -1.36489522451693      0.08890106979910
  O   -1.52980454366372     -0.28853487907517      1.91235501187176
  C   0.54226854577589     -1.24659302909227     -0.88122708115374
  H   -1.00702473199288     -2.26379900022403      0.19941855243410
  H   0.72009424470148     -2.07747234470051     -1.55601207658709
  H   2.10247234498697      0.02266042201716     -1.75287428643752
  N   2.50622044881215      2.74842305864180      0.83532452838336
  C   1.91770279920974      3.14239791045667     -1.28524717330161
  C   2.67922251024294      2.10489555217807      2.12451337108970
  C   3.08104568914178      3.93450953722584      0.47050611748852
  H   1.86369706475849      2.34941175093059      2.80765003966886
  H   2.72175934307651      1.02424579618832      1.99263380768994
  H   3.61736710721319      2.44451815944018      2.56009561169279
  C   2.73004875017717      4.20460374149494     -0.84192564483542
  H   3.69765085912785      4.48102144158551      1.16735376664082
  H   3.03013125677965      5.07398079992225     -1.40569351221227
  H   1.45208628672007      3.02429276941707     -2.25197196419136
