23
Coordinates from ORCA-job opt
  C   1.22321785442012      0.88182704980621     -0.14597262915657
  N   1.43603840314197     -0.07170670827316      0.81325725751439
  C   2.15693525147164      2.00233085172167     -0.19538017194192
  C   0.17136257235489      0.72286151870148     -1.00876356738147
  C   0.66405693246451     -1.21699009583101      1.04051908640707
  H   2.24961357796945      0.01315314389507      1.41433007474366
  C   -0.43120152784494     -1.34746147720363      0.10705853392117
  O   0.95368504221829     -1.99115252965415      1.94940541015205
  C   -0.65431264437788     -0.42080044107320     -0.87276962912369
  H   -1.05955951115369     -2.22185849310652      0.21912967595649
  H   -1.48643213285156     -0.55844888052425     -1.55533639563838
  H   -0.00867047301481      1.47691343430947     -1.76220413799913
  N   2.18701329812036      2.96669526704598      0.78562271194033
  C   3.09261583510664      2.35335522183857     -1.16336149933157
  C   1.35524299235511      2.98358227526689      1.97381976716857
  C   3.12541464924692      3.90778359119789      0.46483915138560
  H   0.36254634478324      2.60560643640777      1.72999785443980
  H   1.78402747114007      2.37178883694311      2.76958478353139
  H   1.26660222442295      4.01054381501173      2.32408432280762
  C   3.70488862671997      3.55105111288451     -0.74174371894628
  H   3.29804176163329      4.75289333607820      1.11322498151203
  H   4.47939955050386      4.10084055286353     -1.25316394783739
  H   3.29667590116958      1.78559318169382     -2.05847791412379
