23
Coordinates from ORCA-job opt
  C   0.91328760680306      1.02720940907164      0.52607822164046
  N   1.60671291338773     -0.12511191255947      0.26991745742066
  C   1.68272322400295      2.22329246903770      0.83895826275869
  C   -0.45658437765695      0.98694905637834      0.50586839540958
  C   1.06427389059296     -1.37565138708088     -0.04901063810910
  H   2.61805386795546     -0.11916221537944      0.35299277626628
  C   -0.37992744196846     -1.37524080653602     -0.05192895276359
  O   1.80283299791917     -2.33117165955115     -0.27590893409255
  C   -1.09727046018523     -0.24414412705575      0.22328254546607
  H   -0.86341580552290     -2.31806698324682     -0.27367089464485
  H   -2.18141703908770     -0.28687302431722      0.21246186842237
  H   -1.01195119039698      1.89633959544353      0.68812202934087
  N   2.59409844943420      2.76712654065521     -0.03771519202065
  C   1.64318017197086      3.03725055148159      1.96756900801490
  C   2.90742392855672      2.26183682310214     -1.36155947089130
  C   3.13190096666403      3.89639685300133      0.51530221980591
  H   2.01109970970836      1.84010918832554     -1.81516564808014
  H   3.25813840222880      3.08923714048082     -1.97605034842673
  H   3.68365234473539      1.49523311590746     -1.32505257587749
  C   2.56035379743048      4.08677661586037      1.76258705853422
  H   3.86556231366693      4.47442619054009     -0.02515757701343
  H   2.78820647180660      4.89412861082767      2.44079506242889
  H   1.02626425795454      2.85751095561330      2.83498632641092
