23
Coordinates from ORCA-job opt
  C   0.86873446779818      1.03521696388097      0.49943643663285
  N   1.47171713222153     -0.00162067063141     -0.15639033054331
  C   1.57980353668405      2.28479729570541      0.69556913189616
  C   -0.43602193436745      0.86534699623367      0.90244182191946
  C   0.91910955792673     -1.25999883445340     -0.44103093206748
  H   2.45523402709292      0.04829509447712     -0.38793508047879
  C   -0.44088167332461     -1.39491325694668      0.00927611295946
  O   1.60436858012512     -2.10534883031554     -1.01411829529837
  C   -1.07283882418977     -0.37048042656207      0.66191491008255
  H   -0.92863079651383     -2.34253612135566     -0.17822353086705
  H   -2.09837576581018     -0.50497002839381      0.99032285411251
  H   -0.95955538040078      1.68683690024385      1.36979128303207
  N   2.71995193592259      2.68307218899565      0.02641269517381
  C   1.34272047574060      3.22633988282431      1.70149513413311
  C   3.28713270616434      2.12766623863721     -1.19255415534320
  C   3.16822680271966      3.86034265041653      0.56569804287634
  H   2.49710128607142      1.79285516777567     -1.86299289483649
  H   3.85398176804295      2.91185455563648     -1.69050138306127
  H   3.96821529452768      1.29981709503897     -0.98146468815738
  C   2.33469182946971      4.21531883448241      1.61106143710863
  H   4.02816067364975      4.35685398503131      0.14340865415476
  H   2.44688755757393      5.08619504527131      2.23757421549822
  H   0.55746774287542      3.15745827400766      2.43850956107340
