23
Coordinates from ORCA-job opt
  C   1.10500919103370      0.89611279884225      0.43886960164767
  N   1.43075143581404     -0.23709911661911      1.13106582902563
  C   1.88269127685398      2.07449561595193      0.77093416629159
  C   0.06012131217691      0.83956230915539     -0.45152221611559
  C   0.79762412177401     -1.48286504268223      1.05062074835787
  H   2.23098602712481     -0.20865451815799      1.75525486576033
  C   -0.28361518219796     -1.50268397649502      0.09403877468723
  O   1.18808636704246     -2.42093209037614      1.74090302244022
  C   -0.62277303916882     -0.38789556158979     -0.62133773235826
  H   -0.80528571039706     -2.44268006289760     -0.03159361398375
  H   -1.44673572338442     -0.43973041055335     -1.32564680576759
  H   -0.25945367330607      1.73363347770330     -0.96616920753448
  N   2.27082234679663      3.02913033249186     -0.13969463725572
  C   2.36195549482911      2.46639869570708      2.02316123162259
  C   2.06748248404373      3.00257523235371     -1.57632081561917
  C   2.97562207618917      4.00676751118099      0.50829561761604
  H   1.11490943568676      3.45843045298188     -1.85059973862511
  H   2.87550130750946      3.55960224830800     -2.04787378503738
  H   2.08685688071561      1.97401406184589     -1.93243050473218
  C   3.04432884591530      3.68431141502602      1.85302101061004
  H   3.38292946805040      4.84044564185408     -0.04257279690510
  H   3.52891711037027      4.27216244296792      2.61665255324042
  H   2.18046814652795      1.94329754300093      2.95064343263470
