23
Coordinates from ORCA-job opt
  C   0.83502814842742      1.07861954685240      0.44661909405854
  N   0.94006850743108      0.42795936214377     -0.75249946124963
  C   1.49142133954449      2.36457742465381      0.59575023711733
  C   0.10168653506514      0.48983174679088      1.44667003431553
  C   0.37956872527993     -0.81195607796035     -1.08731843403951
  H   1.40588951937765      0.88659508904724     -1.52753086728849
  C   -0.39157455008903     -1.38804587558731     -0.01306883238969
  O   0.56152751013768     -1.28514498865502     -2.20698426763989
  C   -0.52645732926693     -0.75090483591186      1.19013719488391
  H   -0.86463832794983     -2.34103912822289     -0.21203317943471
  H   -1.11507899999550     -1.21629751385393      1.97397523599174
  H   0.04203959651469      0.97406559668741      2.41131440638817
  N   2.75612184390631      2.64170662820687      0.12481166683593
  C   0.99414330500710      3.52906369616560      1.17882545928975
  C   3.69829613964824      1.69708630531670     -0.45158581446851
  C   3.06398200229232      3.94498740551148      0.40815834154127
  H   3.59769152817828      1.63951391363068     -1.53735053167822
  H   4.70790944891341      2.02695259054430     -0.21313830974521
  H   3.54108376768753      0.70835555742927     -0.02380093625044
  C   1.98547385352172      4.52019212655872      1.05870754422563
  H   4.02852169696625      4.34787962422854      0.14020264688569
  H   1.92827253512918      5.54324431672090      1.39603119771887
  H   0.00622120427285      3.63115548970278      1.60180657493193
