23
Coordinates from ORCA-job opt
  C   1.17263861937397      0.85212433208155      0.39122234403778
  N   1.36267416597065     -0.22548656670317      1.21246695570286
  C   1.97004809224134      2.01821648196760      0.71637736684056
  C   0.19843741528449      0.75948230833426     -0.57579997294623
  C   0.68107402194185     -1.44680847652150      1.17865000015873
  H   2.11358733791236     -0.19112473587368      1.89388395976560
  C   -0.31992552998904     -1.50554197660512      0.14094665732371
  O   0.96924527735080     -2.33559853038396      1.97623125911740
  C   -0.53622608658455     -0.44408835022442     -0.69217682846867
  H   -0.87972874075939     -2.42751954716422      0.05232863256291
  H   -1.30200440172703     -0.51763957249038     -1.45764192327788
  H   -0.04343393101783      1.60954160899630     -1.19309000522720
  N   2.23145496084901      3.06215346565017     -0.14186076869225
  C   2.50196676092643      2.36261562036478      1.96405112599660
  C   1.97988325470319      3.11848430310930     -1.57057280688114
  C   2.92504581640804      4.03319010492197      0.52867208026171
  H   0.97174263507785      3.47754345820142     -1.78259968564717
  H   2.69813123079101      3.80501353491720     -2.01548787745142
  H   2.11214462447113      2.13164960519975     -2.01108047504956
  C   3.10234601487608      3.62652722338560      1.83923768435381
  H   3.25262700984239      4.92172017208383      0.01140817024863
  H   3.60153109171238      4.18986409818207      2.61180774630510
  H   2.40394136034487      1.78408243857064      2.87072436096611
