17
Coordinates from ORCA-job opt
  C   0.96522386001428      1.00938678153911      0.03146309397153
  C   1.59873436613089      2.30675869026150      0.24817147146347
  N   -0.34524661252246      0.92328528197321      0.31789634707742
  N   1.75551924664927     -0.00127673374059     -0.36769185298378
  C   1.07201455822025      3.55922420125026     -0.02621870089562
  S   3.25089595734506      2.41414351220902      0.68261455915732
  C   2.00711762876311      4.59168828308624      0.17104292022923
  H   0.04579985702623      3.69406402640922     -0.34283921755194
  C   3.23994834225396      4.11345957852776      0.57171921403703
  H   1.79806392122734      5.64314242736448      0.02315125029664
  H   4.12853059041702      4.67934043560293      0.81139742781223
  C   -0.91260902343083     -0.27082616871324      0.13090333724448
  C   -0.19112957708728     -1.37927428247321     -0.29495169062235
  H   -1.97468615533706     -0.33713911497558      0.34757990907995
  C   1.16536128134088     -1.18898923953940     -0.52360655595051
  H   -0.66063071729582     -2.34481619413523     -0.43126959722795
  H   1.80599347628515     -2.00547148464647     -0.84316291513714
