17
Coordinates from ORCA-job opt
  C   0.82395348331304      1.08934819471691     -0.07874928056327
  C   1.43527674231259      2.40893085233965      0.00713002510692
  N   1.64182529051463      0.03174668067092      0.05978943450956
  N   -0.49377057414563      1.04102624781219     -0.33826691954977
  C   2.60721223059398      2.76035045800602      0.65916960683692
  S   0.62915771368946      3.78803769963689     -0.60995224613056
  C   2.85050176029119      4.14496537589581      0.61526052629712
  H   3.24523301051740      2.02386197980393      1.12959982989928
  C   1.85613714024696      4.83162936437268     -0.05495000850989
  H   3.71217891947418      4.62866931716806      1.05645276305433
  H   1.79396101686403      5.89300605260607     -0.24751976801354
  C   1.07067438734064     -1.17111802462473     -0.03179135401437
  C   -0.28568881415650     -1.33467831425991     -0.28652773041712
  H   1.72892020822339     -2.02596983494909      0.09166627460274
  C   -1.03411927437905     -0.17507699129856     -0.44250608777239
  H   -0.73429726953519     -2.31616627423747     -0.36711189212530
  H   -2.09825697116512     -0.21186478365937     -0.65549417321065
