17
Coordinates from ORCA-job opt
  C   0.97170675782813      0.99993918625913      0.10151618484065
  C   1.61035064702825      2.30003121841554      0.26608795786144
  N   0.26859964088849      0.52507588927518      1.14351319198323
  N   1.09898232686817      0.41230772933704     -1.10063345029300
  C   1.87453459609274      3.24233593253436     -0.71577463531835
  S   1.96617809110770      2.91182224514081      1.82516858496069
  C   2.39986500872591      4.43513055259962     -0.18703204550802
  H   1.69381827387252      3.04447232877080     -1.76413158963332
  C   2.51517337620680      4.39359777975504      1.18934829123149
  H   2.67936413890066      5.29614488418382     -0.78000109167162
  H   2.89669241720597      5.15962351048365      1.84891206782676
  C   -0.33380516492227     -0.65294359106169      0.96514565800068
  C   -0.26854650567759     -1.34468266416496     -0.23745755625154
  H   -0.89180588780446     -1.04062892670698      1.81216055608465
  C   0.46930671536254     -0.75432387883354     -1.25639929180317
  H   -0.76906957418953     -2.29422897691741     -0.37507369973016
  H   0.56755514250596     -1.22697021907042     -2.22914913258042
