17
Coordinates from ORCA-job opt
  C   0.82950661015098      1.08697843620885     -0.08430357951880
  C   1.44577230110142      2.40563337002082     -0.00630577718507
  N   1.65152441627258      0.02807351584951      0.01500332433168
  N   -0.49522931360723      1.04151616481947     -0.30550134011797
  C   2.59043341595173      2.76565849924336      0.68803355033288
  S   0.66404397425947      3.77784126144461     -0.66790723319686
  C   2.83728237983350      4.14941679395214      0.63527194545350
  H   3.20876665634252      2.03541251524096      1.19344642248569
  C   1.87068383902727      4.82795362869631     -0.08215325876572
  H   3.68153495958774      4.63833403992168      1.10358497533313
  H   1.81852124897392      5.88627428298009     -0.29344599135348
  C   1.07736128943968     -1.17398334441098     -0.07013574627332
  C   -0.28616572950285     -1.33482897386314     -0.28476894580140
  H   1.73909427620586     -2.02998295270256      0.02313201304830
  C   -1.03847993342568     -0.17375289815804     -0.40670161357998
  H   -0.73736735469748     -2.31543386371116     -0.36203721373670
  H   -2.10838103591343     -0.20841147553194     -0.58901053145589
