17
Coordinates from ORCA-job opt
  C   0.98514198324906      1.00972120994946     -0.03981842284456
  C   1.62788854331227      2.31123765162358      0.07072962460207
  N   -0.35172487876585      0.99984058193615     -0.17681962112375
  N   1.78629671371973     -0.06928781718603     -0.02712769601836
  C   1.03307178613162      3.53505452084260      0.33689535819017
  S   3.33111359180905      2.45539901727135     -0.03769613936985
  C   1.97226689056734      4.57804198613851      0.42629209185356
  H   -0.03775428500394      3.63996350033519      0.44994850738229
  C   3.26770675022114      4.13587184761843      0.23693654419089
  H   1.72066979850392      5.61196255847150      0.62343194067196
  H   4.17742941585255      4.71888601023720      0.24512074092841
  C   -0.92450594403473     -0.20073105997892     -0.28367126525343
  C   -0.19016348556399     -1.38068473452901     -0.27533688828976
  H   -2.00553224523166     -0.20963466516113     -0.38668848325309
  C   1.18734628470495     -1.25570897227128     -0.14776019332494
  H   -0.66732667067363     -2.34745267934386     -0.36857256014781
  H   1.83697875120216     -2.12577895595375     -0.13966353819382
