17
Coordinates from ORCA-job opt
  C   0.98732106013924      1.00688319776673     -0.02171291414098
  C   1.63120618879354      2.30432585761478      0.11959532659063
  N   -0.35611631538874      0.98986363364896     -0.04108225152012
  N   1.79258861692399     -0.06453037227045     -0.12083793706822
  C   1.02895904451825      3.54755807664428      0.23900175105609
  S   3.33901780424113      2.43068329436009      0.15491230529250
  C   1.96852145083587      4.58709221888158      0.35783950103728
  H   -0.04632090332775      3.66605124197683      0.23702045483891
  C   3.27033987957606      4.12448635822167      0.32761078415274
  H   1.71295355829041      5.63356329160501      0.46169339267041
  H   4.18210972651687      4.70004693869203      0.39860322188586
  C   -0.92875230197145     -0.20832590184046     -0.17127830923352
  C   -0.18971109982324     -1.38024931691106     -0.28157438913046
  H   -2.01451471305986     -0.22248986346076     -0.18697629246208
  C   1.19288176414963     -1.24941621349303     -0.25002725523959
  H   -0.66744679857733     -2.34550916658421     -0.38667709374609
  H   1.84586303816338     -2.11333427485200     -0.32991129498334
