17
Coordinates from ORCA-job opt
  C   0.82730200964287      1.06726681805029      0.04318578952300
  C   1.41688451796039      2.39515228552085      0.25749080827383
  N   1.29295997966858      0.06785171636271      0.81056912633696
  N   -0.16905927387279      0.97877961844436     -0.85311549371992
  C   2.72525992493843      2.78460628805276      0.02996203593654
  S   0.42721279995024      3.74699570604575      0.60168459435745
  C   2.91338392210137      4.17170551395580      0.19022646818288
  H   3.50239905870601      2.07748562192705     -0.23093386939609
  C   1.74192993485513      4.82629365663113      0.51357639885441
  H   3.86226896141042      4.67790862785169      0.07079832462517
  H   1.59738965753001      5.87740498318198      0.71627904670124
  C   0.74080791830560     -1.13383443219394      0.61544511292812
  C   -0.28471430241621     -1.34012913427616     -0.29805759560192
  H   1.12703613437209     -1.94469022120670      1.22565336560607
  C   -0.71664515827785     -0.23013893363188     -1.01205934585017
  H   -0.73213026581413     -2.31552185087928     -0.43913523726885
  H   -1.52338381906017     -0.30043626383641     -1.73537152948872
