17
Coordinates from ORCA-job opt
  C   0.90069039457003      1.05941270021892     -0.13403445907048
  C   1.51973858487202      2.37249671062488     -0.02498603422602
  N   1.29258567361420      0.28322906528025     -1.15887596708175
  N   0.00808261761722      0.72594680418135      0.81373324136169
  C   1.51197618407542      3.23003101740587      1.06444092620582
  S   2.46970665560836      2.99834036695727     -1.30551047932454
  C   2.26310673309090      4.39621069366118      0.83240641162152
  H   0.97241328356334      2.99863189141775      1.97312692985522
  C   2.83899530859596      4.40887603256119     -0.42363732684664
  H   2.38596511005126      5.19678224921372      1.55012840058587
  H   3.45739748804772      5.17766692433051     -0.86422201381106
  C   0.72739849586864     -0.92295819681453     -1.24085385217388
  C   -0.20466307498776     -1.36903782489836     -0.31258821615175
  H   1.04063072936845     -1.54553571283090     -2.07354194088538
  C   -0.53166069656684     -0.49039673702486      0.71342821459503
  H   -0.65317272473377     -2.35126198497772     -0.38385819162641
  H   -1.25028876265516     -0.76173399930653      1.48104435697277
