17
Coordinates from ORCA-job opt
  C   0.98073172639957      1.00766369928362     -0.11542761579975
  C   1.62790998713584      2.32667801555049      0.01497791691194
  N   -0.06965640724984      0.92631746611411     -0.94700882358384
  N   1.47940372910283      0.01013900697898      0.63124207831739
  C   1.39146311034716      3.29298301488674      0.97317675454220
  S   2.76729791990017      2.87062389407015     -1.13707692130943
  C   2.15517594832424      4.46108274021538      0.76439437146294
  H   0.69394187284726      3.14627886175956      1.78795485366238
  C   2.95682869004953      4.37255749491297     -0.35402748440191
  H   2.12265991314434      5.33446984114928      1.40237300781399
  H   3.64490202161463      5.10790351355081     -0.74431448997181
  C   -0.66400051805917     -0.26843295823163     -1.03524207882583
  C   -0.23102716495067     -1.36736947504756     -0.30502469114534
  H   -1.51205401355161     -0.33450701980235     -1.70998630859097
  C   0.86242377970813     -1.17214155848655      0.52814788284551
  H   -0.72197144618456     -2.32902013656765     -0.38159319590702
  H   1.26486785142215     -1.97852540033638      1.13363774397955
