17
Coordinates from ORCA-job opt
  C   0.79446425298592      1.07767776365830      0.04153031730069
  C   1.39619662648148      2.41528478156470      0.20128906561166
  N   1.07060218108454      0.17019182711441      0.99098395295190
  N   0.02887764865575      0.88176452520998     -1.04325050276367
  C   2.61560286048524      2.85789326807853     -0.27229242631308
  S   0.58455534310846      3.65181091210283      1.05771934580704
  C   2.87345562081954      4.20280261352951      0.06914683342732
  H   3.28402898443453      2.22438062166877     -0.84128178368792
  C   1.84789779609866      4.76630114319939      0.79831000256653
  H   3.77114435514531      4.74137195380788     -0.20464707506267
  H   1.77755124953011      5.77071140526021      1.18908018349995
  C   0.53210114238953     -1.04286555797279      0.82529675567503
  C   -0.27081240467919     -1.35479174918908     -0.26381545419310
  H   0.75644901205610     -1.77709553104982      1.59301018402715
  C   -0.49680296083087     -0.34000721035183     -1.18428753381707
  H   -0.70122615082263     -2.34016702283299     -0.38808147743737
  H   -1.11518655694248     -0.49856474379800     -2.06250838759238
