17
Coordinates from ORCA-job opt
  C   0.93201016023211      1.03360618030119     -0.10068542353979
  C   1.56024697071371      2.35945304100224     -0.03565347918991
  N   -0.29525302320302      0.97190301707712     -0.64344631244672
  N   1.66169902065618     -0.00969293678710      0.32712585142020
  C   1.14341947101008      3.45605044221039      0.69852769847947
  S   3.10742244687846      2.62901241270183     -0.71314583217544
  C   2.06677599551716      4.51940195390686      0.65588329388844
  H   0.20020121583766      3.47217864265578      1.22966577882266
  C   3.18717541594381      4.21199025535754     -0.08946800264255
  H   1.92665619214644      5.47111076341859      1.15136513315805
  H   4.03702076472969      4.84129789812231     -0.30981072266104
  C   -0.85254422715703     -0.24143832469341     -0.70853617799793
  C   -0.19265377760893     -1.38547133599512     -0.27902881331767
  H   -1.85030853983723     -0.28950604508551     -1.13417224329204
  C   1.08762347954768     -1.21289615298335      0.23042936427882
  H   -0.64951010895508     -2.36428297776241     -0.34746799277842
  H   1.67891854354830     -2.05601583344697      0.57461787999388
