17
Coordinates from ORCA-job opt
  C   0.99013189250395      1.01747478310049     -0.14605831257325
  C   1.63397929954770      2.32102938922053     -0.02661937680748
  N   0.28325087332134      0.78083753264395     -1.26397299733487
  N   1.11030611073149      0.18787708625075      0.90472740647102
  C   1.81703889267881      3.06826429516065      1.12643763689200
  S   2.08059279879827      3.21158609926946     -1.41890852280165
  C   2.35930333543674      4.33909614422665      0.86249818751687
  H   1.56931777595416      2.68147421234760      2.10627102782164
  C   2.56650506843287      4.55181181727242     -0.48696279395800
  H   2.58597399859895      5.07691583713090      1.62097580897804
  H   2.98215956167965      5.42569422845147     -0.96744474345566
  C   -0.32772305273648     -0.40409199087221     -1.33935379320066
  C   -0.26965249400824     -1.33542218572431     -0.31070091961186
  H   -0.88798089885878     -0.59882751808631     -2.24890332094169
  C   0.47063918721162     -0.98010653472372      0.81031035467441
  H   -0.77792678006521     -2.28849789750420     -0.37735038751335
  H   0.56298443077315     -1.64841429816413      1.66125674584449
