17
Coordinates from ORCA-job opt
  C   1.03386399317617      0.99115731505159     -0.14028017675207
  C   1.69321036388456      2.29529312333874      0.00191902794835
  N   0.12169095308889      0.86966699386482     -1.11862275709778
  N   1.33979038507199      0.05912125122201      0.77758861203609
  C   1.60076274052828      3.16701884734982      1.07261598355815
  S   2.48800115029585      3.03256692920725     -1.32134055053889
  C   2.22152419064010      4.40591245680370      0.81710930039890
  H   1.10718903319124      2.89746965775992      1.99763923902133
  C   2.75935020150650      4.47242547920691     -0.45228215712070
  H   2.27175896622787      5.22123290544306      1.52676896135190
  H   3.30812089774675      5.28537938859503     -0.90478139062982
  C   -0.50781552025047     -0.30669872509302     -1.19820084610072
  C   -0.26507343744527     -1.34016014693690     -0.30285675808762
  H   -1.23612974066885     -0.40842683458409     -1.99704162801174
  C   0.67894708402549     -1.09941915598547      0.68677717156784
  H   -0.78934007509214     -2.28466582192110     -0.37008581556653
  H   0.92304881407305     -1.85117166332227      1.43127178402333
