17
Coordinates from ORCA-job opt
  C   0.92418535826199      1.02411940013192      0.09166317431871
  C   1.54825227776973      2.32818446659448      0.26270706308688
  N   0.33237235816251      0.48456076639879      1.17100811544234
  N   0.97180116112362      0.48227930213162     -1.13730092566505
  C   1.96119453101553      3.21081126787236     -0.72355831256129
  S   1.77041723888347      2.99079132693541      1.82650651660714
  C   2.47347994449390      4.40711134140752     -0.19022026280409
  H   1.88856101730589      2.97047817457415     -1.77586385991921
  C   2.43673340896894      4.42461910646075      1.19100895469807
  H   2.85213797333403      5.22831978370769     -0.78466749699637
  H   2.76889493432162      5.20935262422098      1.85541700801893
  C   -0.24722604422389     -0.70512850453631      0.99851122907511
  C   -0.25879742724890     -1.35240186795923     -0.23043474847511
  H   -0.71875287646747     -1.14207793335072      1.87362456563985
  C   0.37360702478453     -0.70168250580018     -1.28318137287254
  H   -0.73663245888660     -2.31434232786017     -0.36214577111690
  H   0.40867157840107     -1.13829542092906     -2.27687287647648
