17
Coordinates from ORCA-job opt
  C   0.94244816406103      1.02429925624524     -0.10889391065340
  C   1.57871346992491      2.35084742201224     -0.00250626034710
  N   -0.17829641474568      0.94507275432464     -0.84300478006807
  N   1.54745108022508      0.00813799189331      0.52582032931841
  C   1.28293255919908      3.36504434105901      0.88721425158295
  S   2.89921865206476      2.77619883893282     -1.00085629410187
  C   2.12906957615159      4.48400004266778      0.73414773145955
  H   0.48277311779841      3.28842384536951      1.61233345397004
  C   3.06245021431309      4.30477044783537     -0.26483506756893
  H   2.06309306146555      5.38581426191355      1.32850864670959
  H   3.82369479357834      4.99316598279452     -0.60118107021038
  C   -0.74788357599774     -0.26230008984972     -0.92563403818505
  C   -0.21042050185667     -1.37964230595366     -0.30064388119553
  H   -1.65707512181465     -0.32527445639533     -1.51576209469368
  C   0.95985502133981     -1.18871053271682      0.42203959495373
  H   -0.67835595808153     -2.35275422400257     -0.37658436491732
  H   1.44923186237461     -2.01039457612989      0.93603875394704
