17
Coordinates from ORCA-job opt
  C   1.01718655009154      0.99465839221826     -0.12794944286684
  C   1.67332798620906      2.30484970985602      0.01421771770892
  N   0.03764792297080      0.90017837662605     -1.04131849386448
  N   1.41000025121818      0.02663709387042      0.71537038614565
  C   1.50317974988619      3.22284255097377      1.03387623373265
  S   2.62771984139341      2.95808863231733     -1.24482184537867
  C   2.18454318031224      4.43344275787430      0.79211971456157
  H   0.91202170028632      3.00892543159034      1.91522668725596
  C   2.84952149155816      4.43037994768845     -0.41663490856977
  H   2.18905151739631      5.27742887521533      1.46929833569280
  H   3.46252419665182      5.20950723391459     -0.84534835026820
  C   -0.58020549041184     -0.28232155330509     -1.12671880909913
  C   -0.25148104684586     -1.35187413184932     -0.30414295365552
  H   -1.36633518666433     -0.36080131089307     -1.87152561034339
  C   0.76444782643996     -1.14058017276331      0.61843072559938
  H   -0.76444160870544     -2.30226616642126     -0.37639504250834
  H   1.08019011821344     -1.92239566691280      1.30251765585743
