17
Coordinates from ORCA-job opt
  C   0.80520915560888      1.10576844396120     -0.18586338111415
  C   1.39145305750101      2.44222598669113     -0.06208428508809
  N   1.44373378118137      0.22433423320145     -0.97304635748668
  N   -0.27511753946617      0.85286238158665      0.57222388906713
  C   1.74436944713191      3.09501554172569      1.10730813292089
  S   1.98155264484070      3.27821624609319     -1.43355211572363
  C   2.44405751648528      4.29292587904008      0.86723074791203
  H   1.48619857001629      2.70691666321675      2.08430023689147
  C   2.63687268861097      4.52775435733534     -0.47992541070248
  H   2.80085061165593      4.95834522742536      1.64238189369025
  H   3.11776637383804      5.37436981627747     -0.94785154412041
  C   0.92285461884403     -1.00478314497774     -1.02923577398416
  C   -0.19378009947474     -1.37227779997585     -0.28982283059761
  H   1.43163246013385     -1.71259354778235     -1.67668413929804
  C   -0.75954495133161     -0.39096516767513      0.51413031100676
  H   -0.59960480252745     -2.37463652741798     -0.33371045995434
  H   -1.62960153304830     -0.59677958872528      1.13039908658106
