17
Coordinates from ORCA-job opt
  C   1.01562570008312      1.00471151551865     -0.14998119933871
  C   1.66775138631168      2.30626618397706     -0.02265706643948
  N   0.23861199425225      0.80772798962917     -1.22809679868136
  N   1.19000005764593      0.14455781733771      0.86804065077087
  C   1.75377154036633      3.09336676665969      1.11458631024485
  S   2.21496310788848      3.15689574390979     -1.40342604460485
  C   2.31048543710832      4.35892170513333      0.85297974645560
  H   1.42987378929543      2.73897729521494      2.08460935039327
  C   2.62265487858099      4.52969369808121     -0.48189227662222
  H   2.47360089243140      5.12210543444268      1.60260578027106
  H   3.07570017679341      5.38814346508747     -0.95618453730305
  C   -0.38479321224678     -0.37132138061311     -1.30132981567981
  C   -0.27274555619052     -1.33318996055649     -0.30587198748731
  H   -1.00131602724748     -0.53474855110805     -2.18011749073013
  C   0.53531325223663     -1.01602835315639      0.77889138857183
  H   -0.79236777636109     -2.28037225064698     -0.36970740187344
  H   0.67176835905191     -1.70900511891068      1.60375039205288
