17
Coordinates from ORCA-job opt
  C   0.95118281822092      1.01288917459744      0.04512031216854
  C   1.58055056054348      2.31416874715249      0.27011575420738
  N   -0.33753291949727      0.89648801046566      0.40871724272808
  N   1.72963518658402      0.02879302571357     -0.43510431811990
  C   1.09758281070974      3.55871017332669     -0.10070034746380
  S   3.19708278016495      2.42190202242865      0.82158764094330
  C   2.03036052534344      4.58867646337974      0.12313961169861
  H   0.10172093221280      3.69337946194798     -0.50311271795857
  C   3.22139278756563      4.11478278162243      0.63777147146048
  H   1.84875329673591      5.63475395390493     -0.08593382012712
  H   4.09635518012927      4.68015189946619      0.92397240784135
  C   -0.90018461860780     -0.29926436588477      0.21370748218913
  C   -0.19110994718088     -1.38096073940655     -0.29339331417212
  H   -1.94580841030872     -0.38924735374100      0.49256855102806
  C   1.14635565796971     -1.16222478055855     -0.59651297027465
  H   -0.65482255822058     -2.34864939732332     -0.43431718307374
  H   1.77738491763539     -1.95764707709161     -0.98142580307502
