17
Coordinates from ORCA-job opt
  C   0.94369798219006      1.03902959341053     -0.13401772582361
  C   1.57334847956150      2.34737679584811     -0.02241812854189
  N   0.34723425839371      0.74521720483106     -1.30198672927409
  N   0.98426239143690      0.25024030399163      0.95348605506814
  C   1.90515085348923      3.03525432169993      1.13464285908134
  S   1.88264320908492      3.29002368766093     -1.41860589503644
  C   2.43346429133139      4.31079226731472      0.86610005887713
  H   1.76698187762007      2.60521718101862      2.11773571359287
  C   2.48723473705520      4.58272754323613     -0.48761287116666
  H   2.75905339773965      5.00956658859585      1.62557826740095
  H   2.85240052651439      5.47643264283715     -0.97286675569095
  C   -0.24114695773003     -0.44999448709192     -1.38430973461330
  C   -0.26083207576829     -1.34124709785822     -0.31915422690367
  H   -0.71488874290149     -0.68870281638524     -2.33176167276386
  C   0.37446688454761     -0.93213186357979      0.84727943589224
  H   -0.74723897923067     -2.30507928834778     -0.39299787052873
  H   0.40306786666585     -1.56802257718171      1.72710722043055
