17
Coordinates from ORCA-job opt
  C   0.97625425473738      1.00696410868804      0.01807968948543
  C   1.61387181037419      2.30226902585252      0.21907379491178
  N   -0.34986799799668      0.94612444557974      0.22894093436877
  N   1.77367114487697     -0.02534315019239     -0.30491463044945
  C   1.05356829186373      3.55793636352380      0.04207491068977
  S   3.29090486548128      2.41152020853059      0.54658541887055
  C   1.98945705557066      4.59295101177422      0.21865567076155
  H   0.00566236273409      3.69056510354566     -0.19311935466560
  C   3.25265117468463      4.11414743701573      0.50945339650853
  H   1.75947233096785      5.64698230976324      0.13373309021673
  H   4.15074804877628      4.68182742131005      0.70587879511978
  C   -0.92064321393514     -0.24769968292742      0.05307022000222
  C   -0.19107090043875     -1.37852651384049     -0.29360136105889
  H   -1.99403820663264     -0.29473950931948      0.21087962349986
  C   1.17828687435388     -1.21086865761470     -0.45435237986436
  H   -0.66484548971835     -2.34286509289436     -0.42282725542809
  H   1.82481559430063     -2.04454682879475     -0.71141256296858
