17
Coordinates from ORCA-job opt
  C   0.81929938702875      1.09118334124488     -0.07330593354271
  C   1.42583025744968      2.41169363383026      0.02128614883233
  N   1.63124311281249      0.03492816063511      0.10401533482012
  N   -0.49048763751721      1.04030063727268     -0.37008970099644
  C   2.62289237086541      2.75585641565991      0.63025405287294
  S   0.59716296392950      3.79666978712616     -0.55165277909654
  C   2.86253210663159      4.14127951113350      0.59502720258957
  H   3.27920903820012      2.01409014959126      1.06572299398362
  C   1.84241962979542      4.83489105293475     -0.02768894280634
  H   3.74021561882764      4.62059215173493      1.00862163134994
  H   1.77075308660852      5.89891936311182     -0.20156139680503
  C   1.06286749622860     -1.16857393249136      0.00563415810951
  C   -0.28525219921945     -1.33456992026978     -0.28853426150563
  H   1.71640581094555     -2.02228312125139      0.15850467846708
  C   -1.02845098955462     -0.17641330925755     -0.47730610254948
  H   -0.73162120972084     -2.31676866376151     -0.37263958363190
  H   -2.08612084331114     -0.21509425724366     -0.72008950009104
