17
Coordinates from ORCA-job opt
  C   0.75022283120010      1.10716692887951      0.06418098232650
  C   1.33502232374497      2.43676982974085      0.21133613058929
  N   0.60530179916480      0.37139279786608      1.17899635890229
  N   0.47272947779839      0.70831175236481     -1.18911363568304
  C   2.24602275309857      3.05250736270409     -0.63238093586067
  S   1.11426342646200      3.34145910722590      1.64769713535064
  C   2.71463501487071      4.27513891986865     -0.11773959315267
  H   2.53457389894860      2.61843783561502     -1.58083521510024
  C   2.17133278422948      4.56741058249567      1.11851236269693
  H   3.42503221973614      4.91824575145157     -0.62049857789016
  H   2.33981762381076      5.44149755697978      1.73072798422505
  C   0.10680814977330     -0.85703593426720      1.01749528997877
  C   -0.21439026060167     -1.36900497856263     -0.23289565400441
  H   -0.02249983726457     -1.44552819159493      1.92084364295889
  C   -0.00211233314400     -0.53255659079444     -1.32189868457930
  H   -0.60659842646522     -2.37041389951653     -0.35346297173193
  H   -0.22125944536235     -0.85709983045620     -2.33476461902595
