17
Coordinates from ORCA-job opt
  C   0.97239509973113      1.01734536791426     -0.06691133200306
  C   1.60979702358041      2.32735062687240      0.00698350565684
  N   -0.33944776094630      0.99991305524237     -0.35949192918507
  N   1.75972651377001     -0.05871187640739      0.09979831005050
  C   1.05603937262304      3.51178174468110      0.46773357136192
  S   3.28462705097493      2.50566607912379     -0.29933044635903
  C   1.99335717302771      4.55946022854040      0.51861405613977
  H   0.01085754262408      3.59010783046903      0.73751209060398
  C   3.25238339077270      4.15717006931942      0.11563384652053
  H   1.76711606432182      5.56778859024306      0.83992310031996
  H   4.14990227396563      4.75386131926465      0.03984549088677
  C   -0.91004469057995     -0.20443289462513     -0.43822500422383
  C   -0.19143697954457     -1.38152330282490     -0.26820341658144
  H   -1.97294739213987     -0.21868094950943     -0.66048544067202
  C   1.16611381827145     -1.24992780871487     -0.00656647303885
  H   -0.66403417587580     -2.35202973797670     -0.34567337926407
  H   1.80449767542358     -2.11843834161205      0.12504544978710
