17
Coordinates from ORCA-job opt
  C   0.76388877313681      1.10095799894065      0.06712997262537
  C   1.35063841225099      2.42785715579252      0.21913413845770
  N   0.57660560453451      0.37960127570832      1.18516082836170
  N   0.51868377139536      0.69122423169609     -1.18938478935812
  C   2.22134019486046      3.06891467070904     -0.64824444943561
  S   1.17057934544376      3.30668621759631      1.67730394027618
  C   2.69489509511681      4.28799325444218     -0.13025953169944
  H   2.47812249035962      2.65405512458121     -1.61416311681901
  C   2.19448931565885      4.55290951053276      1.13015675266758
  H   3.37875360569537      4.94797469398565     -0.64775983289973
  H   2.37784622692966      5.41759501103920      1.75144717261431
  C   0.07142956706842     -0.84569627024790      1.02243116755205
  C   -0.21757140779206     -1.36843461324995     -0.23140170690681
  H   -0.09129644535557     -1.42250370558427      1.92791598460712
  C   0.03497090507089     -0.54593458701967     -1.32257717569340
  H   -0.61630760271123     -2.36713449277331     -0.35283376640011
  H   -0.15816885166267     -0.87936747614882     -2.33785558794981
