24
Coordinates from ORCA-job mp2_opt
  C   2.37696335164019      0.27996264807173      0.01458985639831
  C   1.76320980896845     -0.97952818632321     -0.06486169148737
  C   -0.28844162566032     -0.07654121978455     -0.01969756424469
  C   1.63081586222895      1.50231063918614      0.08743519631802
  C   2.83712726591943     -1.88855336411909     -0.11345290089358
  H   2.81493779029038     -2.96532899328617     -0.17796586433358
  C   -1.76788775032217     -0.10663018090150     -0.01284110808680
  C   -2.47677623584851      0.07194370026225     -1.20332181683504
  C   -2.45349476761904     -0.32643216570723      1.18406035343657
  C   -3.86883729622644      0.03777051031973     -1.19296997689633
  H   -1.93614846830572      0.22666642717357     -2.13125698627768
  C   -3.84547567538255     -0.35764931425030      1.18925518961226
  H   -1.89359949872379     -0.48128630276928      2.10018611183705
  C   -4.55345992746048     -0.17435441418276      0.00247665554237
  H   -4.41821036708272      0.17080476767498     -2.11790769959991
  H   -4.37713580062442     -0.52997971378239      2.11806261222802
  H   -5.63702066280431     -0.20119840471790      0.00854503038613
  N   4.01485842019717     -1.24663511154114     -0.06794966333053
  N   3.70491474075915      0.06299874869537      0.00839115943359
  H   4.44136694715293      0.75234602226865      0.05537562769598
  N   0.26702974561763      1.18610318375495      0.06908834292928
  H   -0.36269379884757      1.98080716564340      0.12095365131351
  N   0.40370639762988     -1.17575334554659     -0.08414015258149
  O   2.04352154450389      2.65171690386135      0.15661263743591
