24
Coordinates from ORCA-job mp2_opt
  C   2.39524762531569      0.27592038139206     -0.00048621592338
  C   1.74367440015189     -0.96644867568496     -0.02499471691140
  C   -0.29329943988900     -0.00799682328910      0.02544468463367
  C   1.67591189108911      1.51453389858681      0.04851647641182
  C   2.79118135218960     -1.90824619937965     -0.06235055463498
  H   2.73882314963038     -2.98558094686408     -0.09105848417132
  C   -1.76980214525266     -0.05203418436322      0.01792517946333
  C   -2.39496019896781     -1.30350731957747      0.09828774314679
  C   -2.56475163453356      1.09545979998056     -0.09495058577846
  C   -3.78031183136302     -1.39896141286436      0.08535234653418
  H   -1.77374727416216     -2.18701688761204      0.17543928227106
  C   -3.95313595569646      0.99312053020894     -0.10676319697063
  H   -2.13204913451509      2.08396479095500     -0.20066684843534
  C   -4.56772713170018     -0.25200305343760     -0.01357640973945
  H   -4.24903629630197     -2.37406546524804      0.15246360677143
  H   -4.55291378708770      1.89171914270138     -0.19449255465040
  H   -5.64879460733014     -0.32831874310250     -0.02270395638083
  N   3.98675868851214     -1.29945310256153     -0.05952216481648
  N   3.71542257665083      0.02122439768715     -0.02175026709754
  H   4.47272594313431      0.68914724993150     -0.01072803264112
  N   0.30552952256981      1.23572157140724      0.05248444486780
  H   -0.27574302389002      2.06124859598725      0.12827106482234
  N   0.38493596695084     -1.12174789126507     -0.01606399744366
  O   2.11316434449520      2.65670234641173      0.08634915667258
