24
Coordinates from ORCA-job mp2_opt
  C   2.37643623468093      0.28503777357666     -0.04157188620757
  C   1.76212043644563     -0.95734956617336      0.18026175332654
  C   -0.29141997549535     -0.06192773974143      0.04444574891057
  C   1.62835320538345      1.48868168920883     -0.26105142364291
  C   2.83659019110180     -1.85457963727443      0.33453281488588
  H   2.81474509348359     -2.91616666170044      0.52598146819285
  C   -1.76338372879863     -0.11035961401020      0.04925185030475
  C   -2.41392158880291     -1.14938990780858     -0.62228314329752
  C   -2.51334645597543      0.88810386459009      0.68049010812458
  C   -3.80354374052474     -1.19098658972040     -0.65342557083482
  H   -1.81790631563795     -1.91482516487599     -1.10582279544881
  C   -3.90419874739316      0.83676982307442      0.65086879685688
  H   -2.01323126982595      1.68140393481857      1.22759986864630
  C   -4.55145286816261     -0.19863342110801     -0.01996758567544
  H   -4.30556425084337     -1.99578726361007     -1.17823266330338
  H   -4.48175391568812      1.60313491273220      1.15509053284131
  H   -5.63437366649839     -0.23436536056345     -0.04593971148853
  N   4.01420106605553     -1.22248262562569      0.21449947002679
  N   3.70408958908179      0.07009797589133     -0.01152276132055
  H   4.44049499735210      0.74921758413145     -0.13891281232679
  N   0.26569490152846      1.17790942844886     -0.20538637817134
  H   -0.35851488333756      1.95452886987745     -0.39815966722617
  N   0.40491035910644     -1.14781101274548      0.22886683503118
  O   2.03955933276441      2.62036870860767     -0.47773784820379
