24
Coordinates from ORCA-job mp2_opt
  C   2.39677646697462      0.27531928826118      0.00005603185560
  C   1.74358380627802     -0.96641544039918      0.00001892591849
  C   -0.29307754651040     -0.00496567350578      0.00001223419253
  C   1.67831035379844      1.51527974992081      0.00006395393590
  C   2.78989382362365     -1.91019222668073     -0.00004540829210
  H   2.73531762070612     -2.98786653538835     -0.00008761999700
  C   -1.77010802044055     -0.04983197769658      0.00001303886911
  C   -2.56927088715612      1.10020749115387      0.00006065082073
  C   -2.39251582777220     -1.30552817678059     -0.00009568564107
  C   -3.95747750260663      0.99493935662054     -0.00000258338616
  H   -2.14272940141377      2.09689515195474      0.00018648573072
  C   -3.77765621893807     -1.40384863632000     -0.00015717166076
  H   -1.76872173376793     -2.19055309444977     -0.00014148812629
  C   -4.56869471600230     -0.25527964595477     -0.00010586137748
  H   -4.55992889822391      1.89607381438139      0.00003585902109
  H   -4.24335839824928     -2.38274062277505     -0.00024054951923
  H   -5.64968203294106     -0.33369266386656     -0.00017254757986
  N   3.98644694294750     -1.30323750771152     -0.00005495073031
  N   3.71666029056766      0.01842409674037     -0.00003939902871
  H   4.47459263113216      0.68573680442641      0.00001277193849
  N   0.30768813558149      1.23793162463327      0.00006230817573
  H   -0.27184064351448      2.06784909842218     -0.00007106730213
  N   0.38480280182002     -1.11980517089421      0.00001513385570
  O   2.11571695410702      2.65816289590835     -0.00004406167301
