24
Coordinates from ORCA-job mp2_opt
  C   2.37901857092035      0.27343723795972      0.03562235964437
  C   1.74905524215371     -0.96345406668933     -0.17224654000209
  C   -0.29298221162418     -0.04647441177893     -0.01112394486302
  C   1.64665885616604      1.48544467648962      0.26143213315342
  C   2.81209009259479     -1.87192007555514     -0.33947570366774
  H   2.77694496098495     -2.93393325685388     -0.52651191793457
  C   -1.76534476548407     -0.07857265960509     -0.00163035082159
  C   -2.50743637892642      0.90365518274907     -0.66686547407800
  C   -2.42241530384873     -1.13670403875639      0.63242368557541
  C   -3.89804832209944      0.83917343578318     -0.67370562952831
  H   -2.00048322712354      1.69933215894780     -1.20408629301067
  C   -3.81183237103362     -1.19144849698328      0.62719197999853
  H   -1.83178080380267     -1.90256047243607      1.12171148331716
  C   -4.55256275752415     -0.20385424993741     -0.02213267972718
  H   -4.46927451974967      1.59712233141883     -1.19748002491544
  H   -4.31951501793227     -2.00710079926402      1.12929320542935
  H   -5.63535686085457     -0.25103318920843     -0.02600681715247
  N   3.99760155744267     -1.25110767258419     -0.23969915841718
  N   3.70383380697720      0.04523920374786     -0.01380185940232
  H   4.44874297962685      0.71748919930804      0.10003306201739
  N   0.28032031557374      1.18870362266108      0.22560849031639
  H   -0.33317907120901      1.97262460100819      0.42330941296043
  N   0.38933154462134     -1.14035012679077     -0.19996572067049
  O   2.07319168415070      2.61320186636954      0.46850530177863
