24
Coordinates from ORCA-job mp2_opt
  C   2.37845544309247      0.28313086820224     -0.03596191470373
  C   1.75761850718462     -0.95933234599150      0.16593427264779
  C   -0.29215699746873     -0.05345873972189      0.03034419553063
  C   1.63625937819096      1.49211101013842     -0.24473327842472
  C   2.82757397050119     -1.86316712341436      0.31377822709078
  H   2.80047794218366     -2.92711910282641      0.49091801965879
  C   -1.76399774917655     -0.09882545429912      0.03651130004194
  C   -2.41304021737235     -1.18212215608033     -0.56343135379742
  C   -2.51723579458007      0.93123294664886      0.61103423849249
  C   -3.80222499358301     -1.23245992086826     -0.58528206998948
  H   -1.81469629789314     -1.97275084958706     -1.00100683448274
  C   -3.90789786058447      0.87125827206785      0.59084762686605
  H   -2.02201129335913      1.75748541894984      1.11171317334307
  C   -4.55303843928313     -0.20646421400550     -0.01145316392338
  H   -4.30208973932843     -2.07139980487598     -1.05589568031736
  H   -4.48691598176150      1.66395295837304      1.05069487691420
  H   -5.63587743555174     -0.24926641856405     -0.02951642025518
  N   4.00843588029214     -1.23457605642860      0.20817735436622
  N   3.70492152979576      0.06226730693600     -0.00223354989415
  H   4.44479816760732      0.73991009615719     -0.11693790285147
  N   0.27211027735317      1.18723678124202     -0.19744947732575
  H   -0.34591145574423      1.96881039538898     -0.38926925439230
  N   0.39972820526401     -1.14418949789994      0.20516835308880
  O   2.05348395422118      2.62417863045857     -0.44736373768310
