24
Coordinates from ORCA-job mp2_opt
  C   2.38516165507414      0.27634424699553      0.01955091321072
  C   1.74837869746287     -0.96687547737850     -0.11362233998680
  C   -0.29352491642060     -0.03289580823649     -0.00081379383502
  C   1.65649585283326      1.50057824160831      0.17576677510180
  C   2.80705150469604     -1.88962715337971     -0.22390643395302
  H   2.76705271818095     -2.96091487349922     -0.34582626629033
  C   -1.76640622206932     -0.07417413117219     -0.01729287907367
  C   -2.53481841570567      1.03164406905307     -0.40090294659427
  C   -2.40797485717852     -1.25774748754417      0.36557863813659
  C   -3.92474015378217      0.95270842541272     -0.39766317625875
  H   -2.06255249232477      1.94335312529244     -0.75214975739262
  C   -3.79554651250173     -1.32828788549134      0.36963350809512
  H   -1.80073294858316     -2.10676739412634      0.65529405757745
  C   -4.55953392584334     -0.22368512357139     -0.00757146788973
  H   -4.51081777949936      1.81047364974979     -0.70706098013933
  H   -4.28471210656138     -2.24705694250794      0.67261275636478
  H   -5.64183156633695     -0.28177968249518     -0.00342129015465
  N   3.99570624260928     -1.27020906780077     -0.15984398107734
  N   3.70843805192293      0.03927925988885     -0.01296636215312
  H   4.45669080850199      0.71342497343485      0.06145117578709
  N   0.28876126305998      1.21091955505220      0.14760446114175
  H   -0.31125477602625      2.01040893573214      0.31731721534684
  N   0.38948438186108     -1.13648691504126     -0.13138227875282
  O   2.08763249663070      2.63585646002460      0.32323645278931
