24
Coordinates from ORCA-job mp2_opt
  C   2.37864528468341      0.27213805418320     -0.03831838852344
  C   1.74825245430486     -0.96230411114837      0.18251701432500
  C   -0.29273909564264     -0.04544429577527      0.01662486269381
  C   1.64714700734524      1.48310295575608     -0.27302402443045
  C   2.81078606618141     -1.87006004112180      0.35586891619238
  H   2.77504902427895     -2.93034524425483      0.55234522188443
  C   -1.76556929978409     -0.07476130435204     -0.00001077394178
  C   -2.50459716222059      0.85967048815563      0.73349486830095
  C   -2.42392287196027     -1.09027494889242     -0.69851487176684
  C   -3.89524118999937      0.79553201997706      0.74002713516958
  H   -1.99322345057268      1.61950038977002      1.31653959557643
  C   -3.81357895262936     -1.14525231298547     -0.69261949687231
  H   -1.83558785350534     -1.82398407765673     -1.23757872816749
  C   -4.55169930887518     -0.20278411355183      0.02321396827232
  H   -4.46479844901377      1.51668652835069      1.31508236671451
  H   -4.32312641265095     -1.92669090859818     -1.24475364789026
  H   -5.63446398312443     -0.25028569011201      0.02740321184196
  N   3.99658614745377     -1.25116032712448      0.24791640988509
  N   3.70345049524846      0.04325750587151      0.01089374126318
  H   4.44871092517624      0.71373968530360     -0.11065050042892
  N   0.28058778938729      1.18674286860587     -0.23591703016550
  H   -0.33433882807809      1.96988092273775     -0.43300215996959
  N   0.38810199507682     -1.13826132005903      0.21403120248415
  O   2.07425566892032      2.60918627692107     -0.48779189244719
