24
Coordinates from ORCA-job mp2_opt
  C   2.37456110702632      0.28689950161576      0.04610493469034
  C   1.76693634292497     -0.95567356951208     -0.19261682626290
  C   -0.29055868007314     -0.07017208331660     -0.06105260426314
  C   1.62041632990416      1.48576403579615      0.27173447627683
  C   2.84594273865665     -1.84708261342558     -0.34809800078448
  H   2.82954729222952     -2.90686273962316     -0.54980376041202
  C   -1.76287427550403     -0.12246327128092     -0.06351660775061
  C   -2.41329212594481     -1.11156855583380      0.67923730880502
  C   -2.51148281782790      0.83984967893143     -0.74967186638030
  C   -3.80315271212514     -1.14445300140002      0.72087770020978
  H   -1.81845138462780     -1.84779977837179      1.20779565171815
  C   -3.90238135926435      0.79773848741565     -0.70865210448501
  H   -2.00854314326837      1.59733898782404     -1.34305290578021
  C   -4.54998991646498     -0.19063246726749      0.02978008521859
  H   -4.30574615703467     -1.91116948726815      1.29941064880130
  H   -4.47967704080161      1.53450533782844     -1.25551859287321
  H   -5.63286398186483     -0.21903253355512      0.06469839174298
  N   4.02016286403601     -1.21159358611398     -0.21351401772324
  N   3.70333094471303      0.07743673205770      0.02292631611823
  H   4.43614119610018      0.75808781341239      0.16215372372486
  N   0.25930652617179      1.16910880636103      0.20758760481020
  H   -0.37084485578244      1.94168204716274      0.39796826449059
  N   0.41054316053325     -1.15147243418350     -0.25174164828803
  O   2.02553094828820      2.61754169274687      0.49912082839628
