24
Coordinates from ORCA-job mp2_opt
  C   2.37760457583088      0.27497961297575     -0.02806101566533
  C   1.75796504530699     -0.97537738120637      0.11898610489928
  C   -0.28918775208470     -0.06508535393466      0.03152942066695
  C   1.63767928546225      1.49517268238258     -0.16688586442621
  C   2.82793956688308     -1.88524479593611      0.21606247470117
  H   2.80131933352099     -2.95679023254477      0.33887120727648
  C   -1.76829807913698     -0.08988726061971      0.01823068938644
  C   -2.48630457754746      0.26714184169599      1.16244027703980
  C   -2.44453885044243     -0.50798387731155     -1.12999838591704
  C   -3.87806856962398      0.22272926248570      1.14984402160342
  H   -1.95335718268837      0.56939148091180      2.05818432170389
  C   -3.83599514896167     -0.54959847430400     -1.13763084177295
  H   -1.87654925552820     -0.80498427935593     -2.00504002629505
  C   -4.55336592466336     -0.18288587814099      0.00004152583149
  H   -4.43431951042028      0.49543012937985      2.03934597387047
  H   -4.36045732146608     -0.87302956655400     -2.02946655669412
  H   -5.63665443637829     -0.21830752824872     -0.00769146021586
  N   4.00861116919130     -1.25218341808828      0.13524227601054
  N   3.70451754446463      0.05297699391273     -0.01063658043054
  H   4.44372170768307      0.73575449082101     -0.09549645738493
  N   0.27246546263353      1.18724594628640     -0.13308332833988
  H   -0.35344708801457      1.98061576260087     -0.23137501807898
  N   0.39744288881172     -1.16347863367216      0.15068127843781
  O   2.05707711716792      2.63645947646457     -0.29923503620684
