24
Coordinates from ORCA-job mp2_opt
  C   2.37840024689770      0.28319337383111      0.03588546784557
  C   1.75758902862095     -0.95930632639925     -0.16584824543954
  C   -0.29220336257521     -0.05344557189317     -0.03038115555997
  C   1.63618240179631      1.49219435066083      0.24448486629530
  C   2.82756478529878     -1.86312811486326     -0.31367364872526
  H   2.80049694730467     -2.92709058094200     -0.49073797949864
  C   -1.76404616191568     -0.09884568672278     -0.03656292601896
  C   -2.41306612234294     -1.18207354369113      0.56352915276235
  C   -2.51729929257149      0.93110380538287     -0.61125528806641
  C   -3.80224809010782     -1.23244479743435      0.58535454345298
  H   -1.81470306312148     -1.97261616805041      1.00122744873937
  C   -3.90796040682684      0.87109267962828     -0.59109610570846
  H   -2.02209196886645      1.75729808210797     -1.11204239726740
  C   -4.55307989071045     -0.20656091710115      0.01135112733967
  H   -4.30210684380112     -2.07132150292612      1.05608240637432
  H   -4.48698295491924      1.66370110833509     -1.05108113605722
  H   -5.63591518329504     -0.24940257589895      0.02940185097237
  N   4.00840787586141     -1.23451574143910     -0.20803356851960
  N   3.70487278978857      0.06234782253112      0.00218975375677
  H   4.44474646151809      0.73999323314782      0.11689297597834
  N   0.27203770138353      1.18728986633794      0.19724424272356
  H   -0.34600946596339      1.96886911133284      0.38895806731922
  N   0.39969897443827     -1.14418744901678     -0.20506091061795
  O   2.05339159410888      2.62429154308257      0.44696245791958
