24
Coordinates from ORCA-job mp2_opt
  C   2.39525184004764      0.27595125872831      0.00048603698458
  C   1.74368193651514     -0.96642035818588      0.02498749760637
  C   -0.29329765391307     -0.00797803583648     -0.02540792239997
  C   1.67591050646904      1.51456119105061     -0.04853412119036
  C   2.79119318629663     -1.90822264046933      0.06221206729271
  H   2.73887261238973     -2.98555920666399      0.09084723695265
  C   -1.76980163245751     -0.05202879899680     -0.01789576783655
  C   -2.39494493426338     -1.30350315011077     -0.09828593303156
  C   -2.56476510083937      1.09545147023146      0.09501253329295
  C   -3.78029600938870     -1.39897613268120     -0.08536612856266
  H   -1.77373289740112     -2.18700899151548     -0.17545389374188
  C   -3.95314725714436      0.99309704497429      0.10682177751781
  H   -2.13208852348839      2.08396710699851      0.20072198180828
  C   -4.56772273586140     -0.25202941653170      0.01360920995265
  H   -4.24900587241437     -2.37408331045958     -0.15250054285253
  H   -4.55293790374265      1.89168225016516      0.19457608820418
  H   -5.64878748182111     -0.32835603133346      0.02271824559780
  N   3.98676424243601     -1.29941978755023      0.05946473963778
  N   3.71542864825604      0.02125974074966      0.02174437758318
  H   4.47274625891588      0.68916663955068      0.01074818087650
  N   0.30552464635020      1.23574469377869     -0.05241732714887
  H   -0.27576802398718      2.06126388657443     -0.12811276974428
  N   0.38494409246401     -1.12172579249968      0.01606205500560
  O   2.11316105658227      2.65673537003275     -0.08626862180437
