24
Coordinates from ORCA-job mp2_opt
  C   2.38518983915363      0.27635626754368     -0.01957237316000
  C   1.74839452319948     -0.96685356618927      0.11364552377191
  C   -0.29349898680671     -0.03286276668278      0.00079727661034
  C   1.65653601202012      1.50058959572295     -0.17583043804256
  C   2.80706266431712     -1.88960975152235      0.22398036993790
  H   2.76705229975477     -2.96088936617406      0.34595718966106
  C   -1.76637729129999     -0.07412543613250      0.01728178680620
  C   -2.53477722371223      1.03171405403258      0.40084493413759
  C   -2.40795948889405     -1.25770825281291     -0.36554318161885
  C   -3.92470022152349      0.95279124710250      0.39761066475555
  H   -2.06250248547501      1.94343418408165      0.75204802752350
  C   -3.79553022778671     -1.32823859550596     -0.36959283211457
  H   -1.80072430286049     -2.10674379156363     -0.65522438091028
  C   -4.55950523306530     -0.22361260082454      0.00756772005136
  H   -4.51077179292340      1.81057251996845      0.70697114217701
  H   -4.28470402538461     -2.24701417909525     -0.67253467913538
  H   -5.64180276916047     -0.28169468543930      0.00342465039092
  N   3.99572100254744     -1.27020968280278      0.15983039368569
  N   3.70846615050826      0.03927502053509      0.01290493932523
  H   4.45672319871470      0.71341275119562     -0.06153364118100
  N   0.28879803063041      1.21094312796941     -0.14766994962023
  H   -0.31121305873694      2.01042591436584     -0.31742497554899
  N   0.38950123661488     -1.13645171675873      0.13141591035857
  O   2.08768315016859      2.63585470898628     -0.32337807786097
