24
Coordinates from ORCA-job mp2_opt
  C   2.38266156031399      0.27956802120271      0.02342801878881
  C   1.75005629489546     -0.96328764337348     -0.13244066509162
  C   -0.29334864725893     -0.03748467315137     -0.00448528460357
  C   1.65089767350216      1.49923292572866      0.20157686557862
  C   2.81167197054375     -1.88031181242349     -0.25966541985664
  H   2.77502038389530     -2.94928229826740     -0.40132301721997
  C   -1.76569129590854     -0.07875552584083     -0.01234628646120
  C   -2.40945688558649     -1.23422816962450      0.44358954839715
  C   -2.52833444463956      1.00131966792739     -0.47248322661745
  C   -3.79748163067627     -1.30055265234445      0.44875028989987
  H   -1.80503432480411     -2.06472819537127      0.78820646396630
  C   -3.91844830232357      0.92617816592084     -0.46831450182133
  H   -2.04685937442221      1.88525830229492     -0.87849759489529
  C   -4.55668900757906     -0.22108989162874     -0.00350142087232
  H   -4.29061660482318     -2.19597486103253      0.80961249929885
  H   -4.50211297763621      1.76195501660085     -0.83682080029482
  H   -5.63913099695988     -0.27635094294252      0.00085461190707
  N   3.99830818712375     -1.25831170368982     -0.18410558889202
  N   3.70680989075465      0.04725996745615     -0.01352486826634
  H   4.45287783017795      0.72232713406961      0.07325360697574
  N   0.28408558211726      1.20532335916101      0.17095435986083
  H   -0.32141167773058      1.99849755375873      0.35241403896656
  N   0.39123035158789     -1.13739343849190     -0.15338263556136
  O   2.07894744543643      2.63296669406144      0.36874100681412
