24
Coordinates from ORCA-job mp2_opt
  C   2.38739838205290      0.27748429080013     -0.01126261957720
  C   1.74581701078009     -0.96604146832478      0.09179021329354
  C   -0.29367677231807     -0.02476282684916     -0.02131817110671
  C   1.66274077330445      1.50615465915043     -0.14906033164708
  C   2.80084726167186     -1.89416662690872      0.19273359132850
  H   2.75673029164721     -2.96758466221629      0.29256826490862
  C   -1.76733022636691     -0.06504951333587     -0.01093200717873
  C   -2.40567205163269     -1.27226973666118     -0.31963121162811
  C   -2.54093545110366      1.05135085024356      0.32971189632896
  C   -3.79252214456844     -1.35141404991015     -0.30846116079108
  H   -1.79568934711617     -2.13199104281672     -0.56875576425880
  C   -3.93036404696621      0.96437259508312      0.34083957882483
  H   -2.07663710969821      1.98386426049696      0.63301198002185
  C   -4.56127831672999     -0.23374022925815      0.01691883348074
  H   -4.27744557388627     -2.28879411283260     -0.55621735212765
  H   -4.51874850255005      1.83314669822885      0.61289136866029
  H   -5.64317897258694     -0.29843160793104      0.02483555090172
  N   3.99177901846694     -1.27724530571903      0.15112397467703
  N   3.70959032240317      0.03582788269054      0.02785492381239
  H   4.46046238786761      0.70898430149425     -0.02651924711501
  N   0.29411366404721      1.21974562249127     -0.13824772887446
  H   -0.29985413690691      2.02560699256849     -0.29703096630662
  N   0.38675041411021     -1.13173216840607      0.09434687505307
  O   2.09750112607886      2.64324619792216     -0.26956049068008
