24
Coordinates from ORCA-job mp2_opt
  C   2.38002926292158      0.27460378157583     -0.03176950251861
  C   1.74905043910405     -0.96438117893464      0.15940517069981
  C   -0.29321268411898     -0.04428266142529      0.00728394920587
  C   1.64809341744548      1.48916946500671     -0.24383130219382
  C   2.81152836111430     -1.87566832725720      0.31532095963386
  H   2.77582509733999     -2.94002350591349      0.48842516478035
  C   -1.76535440255951     -0.07893477282008      0.00397297595549
  C   -2.51289348422276      0.94354311492775      0.59924014039052
  C   -2.41916907206848     -1.17581068603031     -0.56523055453852
  C   -3.90337338527010      0.87632551592629      0.60508420704425
  H   -2.01287761956949      1.77264451511595      1.09027859663923
  C   -3.80815537411128     -1.23342127164567     -0.56106560349833
  H   -1.82472936670137     -1.96855224438003     -1.00415147052250
  C   -4.55376629455436     -0.20782045099191      0.02033051790829
  H   -4.47781002866328      1.66580311306502      1.07607158967811
  H   -4.31207783486946     -2.08042789685135     -1.01249278167866
  H   -5.63648510011476     -0.25700857115144      0.02357647299949
  N   3.99747191847574     -1.25439943678360      0.22403114394742
  N   3.70459314093898      0.04506639225262      0.01497679300822
  H   4.44996411051467      0.71829488108592     -0.08985141162028
  N   0.28159273413270      1.19351347874260     -0.21029577915300
  H   -0.32924669356159      1.98002744658227     -0.40498637254318
  N   0.38959318084737     -1.14032795332512      0.18420148082818
  O   2.07538567755055      2.61875825322920     -0.43894938445220
