24
Coordinates from ORCA-job mp2_opt
  C   2.39025696897547      0.27638341265227     -0.01069747994713
  C   1.74657445691315     -0.96726537543062      0.07546364168620
  C   -0.29350191989121     -0.02071722963036     -0.00247315632315
  C   1.66589193396896      1.50825106926376     -0.11661009737690
  C   2.80021036446248     -1.89983766034524      0.14726019518601
  H   2.75431677221966     -2.97492058214707      0.22649966770035
  C   -1.76791662235644     -0.06457407071799      0.02160854680805
  C   -2.55152232145448      1.07140680553328      0.25966967149390
  C   -2.40039817251825     -1.28909739923712     -0.22788332563911
  C   -3.94078013360409      0.98095934908221      0.25167274665585
  H   -2.10103272600850      2.02761162607960      0.50354281548672
  C   -3.78687626338036     -1.37222835648045     -0.23493970104107
  H   -1.78487681858943     -2.16073485269893     -0.41331084930753
  C   -4.56417678630734     -0.23781401276970     -0.00093014047535
  H   -4.53487646798082      1.86633705782224      0.44700019063448
  H   -4.26468870240914     -2.32524258232438     -0.43159840536635
  H   -5.64593145937393     -0.30476080434743     -0.00909754415663
  N   3.99216380309259     -1.28506894464681      0.10501251142839
  N   3.71210095278249      0.03087437618754      0.00975696439021
  H   4.46426954064402      0.70294578441831     -0.03959770628331
  N   0.29677246239618      1.22408469613975     -0.09793565489883
  H   -0.29372282715259      2.03641840640016     -0.23212586791260
  N   0.38782026654765     -1.12972096450472      0.08819001289116
  O   2.10045769902393      2.64737825170170     -0.21758303563337
