24
Coordinates from ORCA-job mp2_opt
  C   2.38052179340900      0.28118950829004      0.02955867200808
  C   1.75338032589974     -0.96138126176741     -0.15007330110957
  C   -0.29287328645589     -0.04486242691759     -0.01798844970224
  C   1.64397180017873      1.49578570215774      0.22381658442559
  C   2.81889443733596     -1.87218464841593     -0.28793802475354
  H   2.78669583307755     -2.93870887240743     -0.44791131339920
  C   -1.76484257189564     -0.08788874745050     -0.02482927792249
  C   -2.41111380972319     -1.21012726943413      0.50335118589357
  C   -2.52276001986570      0.96924946255410     -0.54174459007589
  C   -3.79971911934300     -1.26906683962151      0.51691327230902
  H   -1.80956532087689     -2.02216740760003      0.89437830867113
  C   -3.91315525569386      0.90110383392672     -0.52944111226180
  H   -2.03414036529698      1.82583041500851     -0.99547846960516
  C   -4.55475340381796     -0.21423612624626      0.00387242824678
  H   -4.29627027454322     -2.13830133810285      0.93288551036168
  H   -4.49460406101482      1.71682390824881     -0.94361488247193
  H   -5.63740873977366     -0.26381283448081      0.01498403727246
  N   4.00285672344530     -1.24723386579020     -0.19651317988208
  N   3.70578056938287      0.05416583229240     -0.00551108417715
  H   4.44900593891097      0.73029868785004      0.09587254022036
  N   0.27837118762988      1.19679812586206      0.18484126567731
  H   -0.33327176122504      1.98410561052147      0.37251715471547
  N   0.39493406373459     -1.14045816447370     -0.18056953948612
  O   2.06706631652129      2.62850971599643      0.40967926504571
