24
Coordinates from ORCA-job mp2_opt
  C   2.38145910053859      0.27531350428044      0.02743222598037
  C   1.74872070259997     -0.96529737097657     -0.14573769339593
  C   -0.29342501876622     -0.04057549039084     -0.00606026777106
  C   1.65053902316947      1.49315319871840      0.22225708014804
  C   2.81008830583230     -1.88045827393387     -0.28677252980506
  H   2.77313830299639     -2.94727209663692     -0.44372234076813
  C   -1.76560089570378     -0.07767773533932     -0.00848016653008
  C   -2.52025446379417      0.97834377322274     -0.53253440268830
  C   -2.41483815334400     -1.20840064889635      0.49754691702243
  C   -3.91057127987571      0.90741869434421     -0.53495938059472
  H   -2.02908447202262      1.83800440917234     -0.97753157658865
  C   -3.80332199469848     -1.27020947617167      0.49630645821175
  H   -1.81561505046362     -2.02341909527226      0.88581516547874
  C   -4.55532370341054     -0.21294110633194     -0.01624897653775
  H   -4.48930055890870      1.72371442120773     -0.95178795020916
  H   -4.30222488418629     -2.14492471729536      0.89770321064546
  H   -5.63791845632434     -0.26505587667153     -0.01718222696120
  N   3.99684596984506     -1.25970786213463     -0.20305686361214
  N   3.70564311373589      0.04327471730715     -0.01388357237754
  H   4.45186794509331      0.71691690569715      0.08197518728221
  N   0.28365678744767      1.19948752511994      0.19022044200515
  H   -0.32384097856556      1.98975021972322      0.37889348164705
  N   0.38946889399606     -1.13921598345086     -0.16880786220347
  O   2.07916176480931      2.62452536470878      0.40350864162199
