24
Coordinates from ORCA-job mp2_opt
  C   2.37090402463298      0.29111281847435      0.05288788281475
  C   1.77924359172090     -0.95579211557559     -0.20232680758125
  C   -0.28787791744188     -0.09421230210771     -0.08259683708532
  C   1.60259506451253      1.48145807184810      0.27668795921140
  C   2.86895386723469     -1.83444857561646     -0.35370593823519
  H   2.86574271169689     -2.89283828927856     -0.56305971948002
  C   -1.76262593648181     -0.15407406263283     -0.07875613069183
  C   -2.41744724464059     -0.93151167900060      0.87943965082404
  C   -2.50422492105003      0.63552806189480     -0.96289748149323
  C   -3.80804365186435     -0.94088518995131      0.93072689642774
  H   -1.82990512105482     -1.53285210915227      1.56444243603106
  C   -3.89543131518800      0.61860486487174     -0.91002154493043
  H   -1.99202117897074      1.24063503851705     -1.70461272566456
  C   -4.54836655415038     -0.16636527965286      0.03846795019309
  H   -4.31494613044791     -1.54729887430266      1.67264249489818
  H   -4.46853789257220      1.21814754140366     -1.60806072605974
  H   -5.63127582955888     -0.17588113504312      0.08094207513092
  N   4.03499804888425     -1.18773623049198     -0.20205024945749
  N   3.70219924751531      0.09587866002251      0.04104164201738
  H   4.42634047779913      0.78305673898365      0.19283776257274
  N   0.24516716746688      1.14952183830507      0.20031330290668
  H   -0.39795087486172      1.91656285252717      0.36993842130869
  N   0.42457310194971     -1.16666072282553     -0.27386049499016
  O   1.99374526487005      2.61701807878336      0.50918618133256
