24
Coordinates from ORCA-job mp2_opt
  C   2.38313293198691      0.27586177177507      0.02357102338875
  C   1.74863573993510     -0.96620141560615     -0.13080911142799
  C   -0.29351786599900     -0.03710248666603     -0.00441004976099
  C   1.65313829477039      1.49680566185592      0.19997851384986
  C   2.80887367841863     -1.88502925781449     -0.25665189564428
  H   2.77062466509319     -2.95412461071112     -0.39690283763388
  C   -1.76594908408529     -0.07648471340881     -0.01374496359119
  C   -2.52753071676073      1.00717734184488     -0.46723311972314
  C   -2.41113871707763     -1.23557441412171      0.43104034615863
  C   -3.91767914587140      0.93260038380436     -0.46601028310531
  H   -2.04559232684694      1.89402325745855     -0.86624576881859
  C   -3.79916852079907     -1.30139263053407      0.43324019033898
  H   -1.80765343325471     -2.06917520395217      0.76968222274733
  C   -4.55725349604631     -0.21796447845818     -0.01134913013883
  H   -4.50029245316096      1.77154036142869     -0.82893303370837
  H   -4.29320425114566     -2.19964358643317      0.78573097159252
  H   -5.63972113105422     -0.27280406843837     -0.00924361099901
  N   3.99644734894733     -1.26475485912103     -0.18160024818802
  N   3.70692197083424      0.04149250755582     -0.01277045398512
  H   4.45398939280650      0.71554062231371      0.07333089270068
  N   0.28588146290501      1.20505748253300      0.16895622907185
  H   -0.31813157746770      1.99951782243461      0.34957051615185
  N   0.38959230708892     -1.13817314468297     -0.15181706023019
  O   2.08288692678340      2.63007465694367      0.36594066095448
