24
Coordinates from ORCA-job mp2_opt
  C   2.37118631915936      0.29147795392099      0.04276212687343
  C   1.78189141820918     -0.96502497299662     -0.16533621874170
  C   -0.28675845951704     -0.10530407851656     -0.06578950569739
  C   1.60136170042902      1.48758796315533      0.22563041317112
  C   2.87327394708031     -1.84581652611315     -0.28881484119332
  H   2.87213869201009     -2.91125955963128     -0.45869817014020
  C   -1.76400871703999     -0.16229996467698     -0.05959032051674
  C   -2.43009799935572     -0.71623394701626      1.03589189301781
  C   -2.49400009582298      0.41696825591543     -1.10131779258249
  C   -3.82158543696029     -0.71831573055220      1.07211980593450
  H   -1.85303385069996     -1.15635158931755      1.84195709190729
  C   -3.88589317046127      0.41045927286239     -1.06116540013073
  H   -1.97099314621035      0.85246955009389     -1.94688727441713
  C   -4.55020497053086     -0.15484882339428      0.02567024049044
  H   -4.33756173576700     -1.15463598462584      1.91973444644632
  H   -4.45089565879320      0.84648398914173     -1.87707129393332
  H   -5.63361590745559     -0.15746275232696      0.05652560343005
  N   4.03829238888103     -1.19096384813544     -0.16618920704165
  N   3.70297391625529      0.09970422613166      0.03171983392058
  H   4.42566587003077      0.79412551831309      0.15507893813728
  N   0.24413379591727      1.14976206078082      0.16680391121648
  H   -0.40103634580731      1.92257250381490      0.29881628684136
  N   0.42681095467876     -1.18189158751041     -0.22301249604706
  O   1.99158549177048      2.63186607068328      0.41178092905507
