24
Coordinates from ORCA-job mp2_opt
  C   2.37858022946347      0.26928441228307      0.04339725525026
  C   1.74869352746087     -0.96261229779387     -0.19215782056900
  C   -0.29143790933932     -0.04579623704283     -0.03195214042689
  C   1.64748759140632      1.48046079624119      0.27874992650732
  C   2.81118064223905     -1.87014500903458     -0.36506050193570
  H   2.77558918371415     -2.92895135922315     -0.56929242477666
  C   -1.76719348459442     -0.06909901133127     -0.00750251722574
  C   -2.49864031714512      0.65840753375907     -0.95107679891832
  C   -2.42986384601187     -0.88467688250991      0.91249892307604
  C   -3.88957298128179      0.59635619761403     -0.94940893886116
  H   -1.97808429218142      1.26169983548231     -1.68840775353125
  C   -3.82028617681388     -0.93907131597276      0.91249949524753
  H   -1.84858504040661     -1.47071512741600      1.61570193935505
  C   -4.55147302392730     -0.19832654885719     -0.01543674316809
  H   -4.45495758023677      1.15795016371930     -1.68430711020110
  H   -4.33434251979774     -1.56483123592848      1.63311647297014
  H   -5.63424176761678     -0.24562541115522     -0.01509397637377
  N   3.99690055531296     -1.25338895700134     -0.24415401155906
  N   3.70363601144247      0.03932496440519      0.00088253098162
  H   4.44885880119674      0.70793092353841      0.13241995537227
  N   0.28043171313638      1.18439995786400      0.23394434789967
  H   -0.33809441575537      1.96961756552397      0.41162203491663
  N   0.38755766943738     -1.13797460519692     -0.23207161507616
  O   2.07446543029861      2.60580164803299      0.49711947104637
