24
Coordinates from ORCA-job mp2_opt
  C   2.39012382580365      0.27678587284980     -0.00582750433631
  C   1.74455551406798     -0.96657398613487      0.07036503778360
  C   -0.29365488045331     -0.01830499099587     -0.02713452448135
  C   1.66798655735696      1.50957612945883     -0.11707202891391
  C   2.79655922386113     -1.90012557563181      0.15230029880490
  H   2.74890340469171     -2.97533884157511      0.22871973294882
  C   -1.76824650635901     -0.05950094485702     -0.01671827178132
  C   -2.40198690448243     -1.28643249059661     -0.25014405339864
  C   -2.54929288865274      1.07074407903272      0.25473113450874
  C   -3.78823998641362     -1.37191755950486     -0.23540282764463
  H   -1.78798991426566     -2.15687892383590     -0.44590376723180
  C   -3.93835441968334      0.97795707035819      0.26837685771253
  H   -2.09590627764539      2.02515480457538      0.50006325309060
  C   -4.56358946638332     -0.24039851517024      0.01838732106019
  H   -4.26748694697401     -2.32573110278377     -0.42451269286951
  H   -4.53065224669259      1.85974249423740      0.48429640274354
  H   -5.64518967792731     -0.30956623717616      0.02856749830901
  N   3.98941129259041     -1.28622302333228      0.12485600147556
  N   3.71147145607483      0.03012800395187      0.02923799392747
  H   4.46468356983362      0.70169997497826     -0.01002322327604
  N   0.29861760311013      1.22628748405560     -0.11428033158532
  H   -0.29010067537501      2.03911511203606     -0.25352297239046
  N   0.38555700436058     -1.12816997675323      0.06740446549450
  O   2.10445133955673      2.64858614281362     -0.21110179995019
