24
Coordinates from ORCA-job mp2_opt
  C   2.38739209674366      0.27747738938987      0.01126691247999
  C   1.74581531400563     -0.96605591805414     -0.09173431535253
  C   -0.29368231103984     -0.02477453719495      0.02131314821671
  C   1.66273355655573      1.50616124003351      0.14894646623153
  C   2.80085072694469     -1.89418419696360     -0.19265878890375
  H   2.75672577742566     -2.96760003623249     -0.29246760441518
  C   -1.76733172062982     -0.06505617480125      0.01092878490558
  C   -2.40567986624468     -1.27225715993859      0.31968134292286
  C   -2.54093162572273      1.05133951481131     -0.32973397865879
  C   -3.79252921233972     -1.35139095369006      0.30852738512995
  H   -1.79569764409694     -2.13197118062690      0.56881776438339
  C   -3.93036004738312      0.96437761200279     -0.34083892415962
  H   -2.07663218520891      1.98383662659747     -0.63306968603899
  C   -4.56127954144277     -0.23372022654432     -0.01687303906956
  H   -4.27745752142495     -2.28875420428048      0.55631888210699
  H   -4.51873582123121      1.83314822750248     -0.61290380379854
  H   -5.64317697999701     -0.29840233387442     -0.02476709272645
  N   3.99177558940432     -1.27726310743840     -0.15097842074928
  N   3.70959033643768      0.03581051810779     -0.02774326791129
  H   4.46045359744700      0.70897033668393      0.02668100439804
  N   0.29410585054075      1.21974207424398      0.13819096863716
  H   -0.29985598942760      2.02561400097801      0.29693984055835
  N   0.38675069243250     -1.13174323229846     -0.09431016102441
  O   2.09749492825169      2.64325072158694      0.26949358283783
