24
Coordinates from ORCA-job mp2_opt
  C   2.37556376088431      0.28547106533038     -0.00031531499497
  C   1.77111363195396     -0.98111906597476      0.00285559963443
  C   -0.28737799945266     -0.09269403152628      0.00328406328910
  C   1.62004303125737      1.50438645884047     -0.00224115835299
  C   2.85151378618180     -1.88372217832678      0.00293629082106
  H   2.83679681569761     -2.96257162074361      0.00474075403135
  C   -1.76676083334013     -0.13165447018900      0.00224558584448
  C   -2.46304141431644     -0.15470360958676     -1.20843172697142
  C   -2.46638909785048     -0.12275974821901      1.21118784474699
  C   -3.85538770595272     -0.17057413119726     -1.20735316824293
  H   -1.91192925372890     -0.17146337274227     -2.14271963060443
  C   -3.85875260010958     -0.13899878702813      1.20675892079343
  H   -1.91800685917237     -0.11458709233164      2.14722263750142
  C   -4.55389291919745     -0.16020624791283     -0.00118991900654
  H   -4.39440738981739     -0.19311387697142     -2.14754691917398
  H   -4.40033149653056     -0.13744171947540      2.14575141742295
  H   -5.63770277512877     -0.17201543795744     -0.00253228605079
  N   4.02446556828574     -1.23165174256633      0.00012784174649
  N   3.70511348844103      0.07783970966474     -0.00170458666167
  H   4.43680486416429      0.77379459785764     -0.00408368906704
  N   0.25862902987655      1.17727293003400     -0.00118916396467
  H   -0.37690915463875      1.96900701720205     -0.00290381071693
  N   0.41321806552649     -1.18826202956962      0.00496159465609
  O   2.02331545696706      2.65930738338926     -0.00480817667944
