24
Coordinates from ORCA-job mp2_opt
  C   2.37855025845797      0.27087964204496      0.04010309120724
  C   1.74760036853823     -0.96154418809641     -0.19019195233463
  C   -0.29242688633301     -0.04403151678871     -0.02325804023812
  C   1.64794494162584      1.48154581162111      0.27950420849206
  C   2.80956215198028     -1.86938950247920     -0.36581786455257
  H   2.77325919070619     -2.92854571069544     -0.56817358051899
  C   -1.76596946896710     -0.07072296608536     -0.00067192393059
  C   -2.50299606747156      0.80704580157062     -0.80242213304153
  C   -2.42496929481123     -1.03496371579006      0.76602777202650
  C   -3.89367530479479      0.74277656432772     -0.80683940632647
  H   -1.98860604177541      1.52506291732540     -1.43381292758124
  C   -3.81483151220218     -1.09066680798496      0.76130032176600
  H   -1.83846323556443     -1.72982278152571      1.35635106635974
  C   -4.55129426218979     -0.20216355990895     -0.02182040639587
  H   -4.46217403715844      1.42048214282538     -1.43349220942886
  H   -4.32541079061972     -1.83137206563472      1.36613836437891
  H   -5.63402206046435     -0.25031061051645     -0.02499557276005
  N   3.99570667802330     -1.25241103404120     -0.25074129770940
  N   3.70330990792938      0.04087206496480     -0.00709169755471
  H   4.44900388443022      0.70971649487037      0.12055933156264
  N   0.28110934199431      1.18575815549335      0.24085231096409
  H   -0.33492284684706      1.96907281919466      0.43431105641734
  N   0.38702096898583     -1.13632309976160     -0.22576941986852
  O   2.07567811652751      2.60651314507040      0.49866290906705
