24
Coordinates from ORCA-job mp2_opt
  C   2.37288241265960      0.28852213832490      0.04970288716904
  C   1.77161967080718     -0.95469807901624     -0.20140427443972
  C   -0.28964644543771     -0.07836438949452     -0.07535605861033
  C   1.61303765976439      1.48341309950472      0.27781534313917
  C   2.85487954121123     -1.84097152871852     -0.35594184956486
  H   2.84373620925893     -2.89949139097825     -0.56444704015931
  C   -1.76253843929718     -0.13430874907059     -0.07522115450028
  C   -2.41274269745577     -1.06493210891602      0.73942170817501
  C   -2.51019794281698      0.78368972889343     -0.82010050218384
  C   -3.80275061773073     -1.08911125288538      0.78945958376269
  H   -1.81915273309975     -1.76585613518573      1.31549952736829
  C   -3.90108830264734      0.75081761498108     -0.76983581259128
  H   -2.00512158099229      1.49964050158911     -1.46130650897679
  C   -4.54886708757922     -0.18214275603179      0.03748478082670
  H   -4.30558090906471     -1.81145252030357      1.42234773297052
  H   -4.47809621012428      1.45187956259577     -1.36208288805342
  H   -5.63164469404331     -0.20331877698359      0.07929368719536
  N   4.02580204382236     -1.20208128860112     -0.20921661508327
  N   3.70263513356981      0.08414650444567      0.03353204832031
  H   4.43199934773705      0.76648462719818      0.18215198633093
  N   0.25341512735946      1.16118321792670      0.20621952961296
  H   -0.38210082446157      1.93067629513631      0.39178135839030
  N   0.41603262013502     -1.15566991890331     -0.26925489148268
  O   2.01249171842581      2.61574660449276      0.51222342238451
