20
Coordinates from ORCA-job opt
  C   0.93396494586486      1.02174245707712     -0.16160679304370
  N   1.13386073203262      0.17113291475483      0.89033170620277
  C   1.70120798662767      2.26647619328173     -0.15623733328092
  C   0.00736704525165      0.69002942428187     -1.11403208085804
  C   0.50170619006742     -1.06055173984409      1.09875674083872
  H   1.82000164666324      0.42661044735939      1.59402344214321
  C   -0.46799179077500     -1.37237648388760      0.07305418499061
  O   0.78380466611968     -1.74741850959857      2.07682632342446
  C   -0.69980299470513     -0.53060826460609     -0.97832888499733
  H   -1.00043843219204     -2.30872309098470      0.18116712393655
  H   -1.43403885000515     -0.80560812761901     -1.72826241181823
  H   -0.14842169667796      1.35362090604759     -1.95329616787178
  N   1.13055573647236      3.45821901075019      0.21379799967776
  C   3.04911738430904      2.51150315331458     -0.38508978428372
  C   2.06696863812838      4.45348167539010      0.20812611729390
  H   0.15629180059403      3.56719570198098      0.45260976163685
  C   3.27416296839911      3.88874752917227     -0.16284042426229
  H   1.80614074872642      5.46805354628921      0.46263093080082
  H   4.20777997910982      4.41847521557164     -0.26807005397117
  H   3.76956229598900      1.76919904126856     -0.69346039655848
