20
Coordinates from ORCA-job opt
  C   0.97789265432771      1.00080791924449      0.11797844883821
  N   0.90979231087155      0.28096704186062     -1.04166617240235
  C   1.74085852700438      2.24308302198585      0.07494868974968
  C   0.28870227375970      0.55552168578899      1.21588295142204
  C   0.22834784785221     -0.92727832631715     -1.23381171989118
  H   1.40533379857241      0.62996295522036     -1.85645782024401
  C   -0.48845625746136     -1.35975550329799     -0.05553729536906
  O   0.26714621594907     -1.49599409165363     -2.32123000299927
  C   -0.45794494880701     -0.64347771650847      1.10812515125385
  H   -1.05200207057908     -2.27980878119417     -0.14373208946437
  H   -1.00721965236228     -1.00636725873531      1.97061732277192
  H   0.35398945077054      1.10869306393318      2.14279980998486
  N   1.13148674616030      3.46217435571833      0.22696362568628
  C   3.07845483490615      2.48656790818744     -0.21389208587127
  C   2.04024047715995      4.46956386840117      0.06438503368138
  H   0.14556523157894      3.57994084867912      0.40685535485337
  C   3.26478500468328      3.88680360803629     -0.21022218642897
  H   1.74989012207665      5.50413495336818      0.15137986240068
  H   4.18850451811595      4.41838478721566     -0.37639279818568
  H   3.82643391542091      1.72527566006704     -0.37689307978610
