20
Coordinates from ORCA-job opt
  C   0.98528766259799      1.00245237123014      0.00227248093219
  N   -0.37835085356056      1.00590466780707     -0.04814470881107
  C   1.63732198626009      2.29495654699356      0.00364773611413
  C   1.64137948018792     -0.20292207271839      0.05508263627293
  C   -1.21760883854132     -0.11533593416603     -0.03410830817473
  H   -0.86159679943058      1.89360102107458     -0.14134472206584
  C   -0.49095788688484     -1.36275365681831      0.00770680715762
  O   -2.43659166423626      0.02625365440617     -0.07337161039444
  C   0.87539597722453     -1.39236325084957      0.04339178339161
  H   -1.08266071473844     -2.26898635006854      0.00232899977153
  H   1.38563398341921     -2.34934440428503      0.07931788056849
  H   2.71783815834172     -0.22812991324275      0.15697142499984
  N   2.88447718020530      2.47729238073808     -0.53185545534233
  C   1.22399706828010      3.52497923617097      0.51001334117392
  C   3.27285078487997      3.78076595840303     -0.39449236828125
  H   3.38374156876711      1.77163165051060     -1.05205980670677
  C   2.25621657802121      4.45390523031769      0.25938556135963
  H   4.22062404772037      4.12428603973798     -0.77656694671171
  H   2.26950901206128      5.49687302165300      0.53387832928806
  H   0.30529426942517      3.70613280310573      1.04804794545819
