20
Coordinates from ORCA-job opt
  C   0.89286049429058      1.05682518800300      0.03048593282776
  N   1.09788835867037      0.14510906707397     -0.96382943867386
  C   1.65782617279421      2.28245727738213     -0.04669438670154
  C   0.00961509199528      0.74580092150420      1.03579998938058
  C   0.49655965926346     -1.11429694934803     -1.08201268093107
  H   1.70883669575274      0.38998240287535     -1.73607546387522
  C   -0.43451516936234     -1.39742697609871     -0.01540885026939
  O   0.77316140107573     -1.84164305812360     -2.03174133492973
  C   -0.66290104580313     -0.49752932022048      0.98806697128949
  H   -0.94419665324322     -2.35131357545886     -0.05557577728267
  H   -1.36623049565172     -0.74702341236209      1.77581653041135
  H   -0.12450355260156      1.42089164151580      1.86989867107261
  N   1.26991830554996      3.42361678811647      0.60352974027794
  C   2.87262222131218      2.56048445826342     -0.67058925014928
  C   2.18214172198912      4.42063258027083      0.39723536186325
  H   0.37753305293008      3.53989596862358      1.05899849176748
  C   3.19617365606199      3.90443558523399     -0.38937379436991
  H   2.03506485845422      5.40560030514180      0.81016762464316
  H   4.07563709736031      4.43950009502798     -0.71108106198702
  H   3.47830712916172      1.85320101257923     -1.21751727436392
