20
Coordinates from ORCA-job opt
  C   0.98081864351268      1.00708425528650      0.10718349066430
  N   0.03259204847943      0.79414250939629     -0.85579054623601
  C   1.72277252406090      2.24927373609802      0.07032620517374
  C   1.22484706441351      0.00524932633435      1.01362102887067
  C   -0.76193577034428     -0.35206229996816     -1.01376286128181
  H   -0.25411271959417      1.55630223756167     -1.45985192810597
  C   -0.47626228636517     -1.37456577787781     -0.03902500472973
  O   -1.60163343262536     -0.39169492565734     -1.90965159126364
  C   0.46762576259835     -1.18459053893031      0.93328301483507
  H   -1.05628634256386     -2.28586093419453     -0.10373556148346
  H   0.65207713225917     -1.97483204255352      1.65363964182909
  H   2.00818130823279      0.13150433568043      1.74749209113140
  N   1.74976817091462      3.06787698257194     -1.03380036101883
  C   2.41572589537880      2.90914198542582      1.08163896388676
  C   2.48116360386278      4.19478163948237     -0.76692160094903
  H   1.48265941594478      2.78535653375664     -1.96514192208330
  C   2.89428295519891      4.12445968524939      0.55047020040382
  H   2.65156533858208      4.93941724941262     -1.52772771224922
  H   3.46320476120258      4.87908111336318      1.07027263322797
  H   2.51474692685144      2.55913392956244      2.09757981937819
