20
Coordinates from ORCA-job opt
  C   0.93523777518970      1.03042409808978      0.07095256231459
  N   1.03102229479329      0.19154727711680     -1.00128991178417
  C   1.70290834109648      2.25826104533958      0.00632028785351
  C   0.12073275871428      0.67716379191304      1.11805505264538
  C   0.39649849786840     -1.04834324215541     -1.14953372984614
  H   1.59425048784822      0.47933683820655     -1.79541837603321
  C   -0.46007115032007     -1.37890164980809     -0.03429744278104
  O   0.58190956091456     -1.72036170916773     -2.16022424829699
  C   -0.58978450840787     -0.54430763785619      1.04076659430899
  H   -0.99695260923277     -2.31659717264586     -0.09760523782690
  H   -1.23969555817474     -0.83104223293626      1.86101748600962
  H   0.07406401531293      1.30515682465272      1.99748428635616
  N   1.20334921650965      3.44644195291599      0.46950440707598
  C   2.97307584860351      2.51604910629689     -0.50205155867860
  C   2.11042042142142      4.44988932483119      0.27296786054839
  H   0.26345038580262      3.56482547952254      0.81696918560089
  C   3.22640088576384      3.89348755298513     -0.32692351201699
  H   1.89053758267286      5.46582323497220      0.55888231014409
  H   4.12557020640789      4.42594815967947     -0.59402486617365
  H   3.64887454721579      1.77439995804767     -0.90145114941992
