20
Coordinates from ORCA-job opt
  C   0.97854139893694      1.00536593987533      0.10019134909218
  N   0.42598869299377      0.56107006196872     -1.07110745984763
  C   1.72989315744676      2.24573738320629      0.05257690391932
  C   0.80640783290483      0.25736717827329      1.23582382527951
  C   -0.34095216413598     -0.59892990402998     -1.24588197813822
  H   0.62886038671386      1.05631966473231     -1.93342723515762
  C   -0.49286371309430     -1.35971695665548     -0.02852645120126
  O   -0.78802090663263     -0.87996500871708     -2.35488238604496
  C   0.06882291030283     -0.94715992889420      1.14816897785114
  H   -1.06201344836355     -2.27767543234243     -0.09920730075814
  H   -0.06692171789104     -1.54930257110837      2.04054959854624
  H   1.21027410527985      0.61742411385747      2.17164628913451
  N   1.26807478735396      3.35012109961888     -0.62271001058586
  C   2.94322774181239      2.59637664908197      0.63156938281150
  C   2.14282404442334      4.39152843791312     -0.47463247421320
  H   0.35074142630329      3.42283005310180     -1.03756201173175
  C   3.20052123636385      3.94329989021301      0.29582550345066
  H   1.94539240640860      5.35354858541977     -0.91947150707239
  H   4.06803845432276      4.52435884398041      0.56642171484299
  H   3.57496336855045      1.92660190050516      1.19473526982297
