20
Coordinates from ORCA-job opt
  C   0.98419713069446      0.99913037628876      0.07291758342460
  N   -0.16807374330911      0.89241638740014     -0.65904766784528
  C   1.65296072619940      2.29280845951491      0.07642159993643
  C   1.41758434649424     -0.08823931939249      0.78414145438778
  C   -0.96627288200706     -0.25009430960683     -0.79781059706999
  H   -0.53006170523941      1.71657308576686     -1.12827981093241
  C   -0.47676627440878     -1.37138879892504     -0.02992730086525
  O   -1.97158121801966     -0.22121818978728     -1.50301370906500
  C   0.65700865061829     -1.28176486961818      0.72876203094402
  H   -1.05972149547939     -2.28215805495876     -0.07912474133488
  H   0.98858306847026     -2.14758853721734      1.29232926732377
  H   2.33483189916792     -0.01491232649542      1.35131658381876
  N   2.11947953045069      2.87172328891452     -1.07928973779219
  C   2.01056996354929      3.12782459435617      1.12658942232978
  C   2.75994237923068      4.04531847829987     -0.79293119140115
  H   2.07051905710263      2.44351694360877     -1.99177940426488
  C   2.70032849416639      4.23100105423157      0.57653705308789
  H   3.20169708616805      4.64506408888103     -1.57234066886571
  H   3.10078572905883      5.07763096067335      1.11149050337910
  H   1.76579025709226      2.95355768806538      2.16313933080461
