20
Coordinates from ORCA-job opt
  C   0.97901357177454      1.00601193023180     -0.04198979383232
  N   -0.31478233000903      0.97190374647769      0.39033737594992
  C   1.63052519399036      2.29836570398462     -0.03580441130780
  C   1.56553812213980     -0.16309069720168     -0.46131460075903
  C   -1.14804544248621     -0.15251186944815      0.44625337578960
  H   -0.73289579069564      1.82354017758103      0.75079604170338
  C   -0.49153068696245     -1.36302305524385      0.01134208037341
  O   -2.30227600647527     -0.04466027260626      0.85071426199625
  C   0.80767544988084     -1.35667060706690     -0.41417237435496
  H   -1.07746160036038     -2.27231887128636      0.04640229822203
  H   1.26538885531920     -2.28561484458238     -0.73824684974440
  H   2.56808947379100     -0.15061962094269     -0.86681496467313
  N   2.98829186172682      2.42511197333732      0.09000166690278
  C   1.11021810492255      3.58277380920313     -0.17858961504808
  C   3.34701966497362      3.74355044471108      0.04715763590393
  H   3.60937571451538      1.65952987325229      0.30409147793708
  C   2.19286611603069      4.48614863789969     -0.12726060876876
  H   4.37635719795860      4.04578332472919      0.15393520612852
  H   2.14532003513441      5.55970499918366     -0.21951771488530
  H   0.07311249483118      3.82528521778675     -0.35722148753313
