20
Coordinates from ORCA-job opt
  C   0.98183089253130      1.00524010012858     -0.03655524200132
  N   -0.38174584330076      1.00507797324157      0.01459234970029
  C   1.62971070855479      2.29878466066844     -0.04066597121809
  C   1.63798217620169     -0.20192642389831     -0.04845034393125
  C   -1.21869729845837     -0.11709570705302      0.05688305466664
  H   -0.87555485828076      1.89035411588782     -0.02711857821402
  C   -0.49243603050555     -1.36449217174754      0.02869571056687
  O   -2.43741055936965      0.02596689807064      0.09987772745421
  C   0.87321731133952     -1.39134803369868     -0.02717797220931
  H   -1.08256620923505     -2.27149014204136      0.04740119496372
  H   1.38590287537780     -2.34758776561882     -0.04221814410779
  H   2.71853707020390     -0.23551755939365     -0.02440121631915
  N   2.92968118790431      2.46064117588897     -0.44003017395528
  C   1.17602534090909      3.54590509135668      0.38588714545488
  C   3.30883835395938      3.76703159677246     -0.30525289981158
  H   3.47902684132326      1.74256571553568     -0.88685769246277
  C   2.23339734607077      4.46373098972941      0.21558434896606
  H   4.29408319955012      4.09464554828245     -0.59556130283226
  H   2.22257202260743      5.51526029216915      0.45513800926921
  H   0.20940547261679      3.75345364571951      0.82032999602095
