20
Coordinates from ORCA-job opt
  C   0.98746017196762      1.00017871630579      0.09447560223977
  N   -0.09444421209775      0.86443148036736     -0.73359899945078
  C   1.67162301099988      2.27970818664144      0.09036661984076
  C   1.35211193200757     -0.06070862951587      0.88209592435854
  C   -0.88705914257600     -0.28061094642684     -0.89168044094441
  H   -0.42937647377743      1.67314970735465     -1.24723159726822
  C   -0.47343027138868     -1.37104448674974     -0.04098127689439
  O   -1.82932481712484     -0.27299860362108     -1.67959588722599
  C   0.59019586148335     -1.25105200174437      0.81025935833370
  H   -1.05597852252880     -2.28119440701983     -0.10294146458980
  H   0.86729083869206     -2.09382988869946      1.43499087851235
  H   2.22502177951846      0.02594010195886      1.51378668018331
  N   1.96797994109416      2.94203270831697     -1.07687448930888
  C   2.16554645003443      3.04980009967064      1.13600750620968
  C   2.64777804465882      4.09710681454906     -0.80241789987669
  H   1.83517669858570      2.55736167896121     -2.00060682252104
  C   2.77500342447229      4.19138906496879      0.57168578727050
  H   2.98379737686228      4.74809798691497     -1.59339539121743
  H   3.24123816873497      5.00640916210339      1.10253916365594
  H   2.05118874038191      2.81503425566404      2.18321874869308
