20
Coordinates from ORCA-job opt
  C   0.96857270890297      1.00949613383423      0.09181521453900
  N   0.47594717611879      0.52266073184323     -1.08931025052399
  C   1.73217268354231      2.24558652138339      0.03448500243741
  C   0.74781039601946      0.29870602841398      1.24204812545211
  C   -0.28210014197707     -0.64293769857774     -1.26071456346787
  H   0.70614625065910      1.00172610012972     -1.95408212888349
  C   -0.48768365318888     -1.36388263354530     -0.02639795598884
  O   -0.68025430729197     -0.96240072132055     -2.37796744229061
  C   0.01641691203856     -0.91099549631062      1.16119931023337
  H   -1.05142369732321     -2.28554958213522     -0.09280082044489
  H   -0.15917103948563     -1.48442561258430      2.06540996223128
  H   1.11466036480448      0.68852254571554      2.18114135113971
  N   1.22489494022910      3.38595732532336     -0.54077970819964
  C   2.98491549606207      2.56443080198037      0.54217869373655
  C   2.11512521477958      4.41564898231092     -0.40875993622661
  H   0.28831492817520      3.47239095707351     -0.90674170521999
  C   3.22490453911111      3.92656733629741      0.25659960872864
  H   1.89217824595590      5.39886723748712     -0.79075091086427
  H   4.11241674629674      4.49204314421012      0.49305507105294
  H   3.64795623657138      1.86678689847082      1.03047208255921
