20
Coordinates from ORCA-job opt
  C   0.95020079370073      1.02127444177316     -0.15120913761349
  N   0.66943768531163      0.44786685988973      1.05918381680343
  C   1.67664464307728      2.27370603225774     -0.14821069110095
  C   0.50610330833945      0.39975094698327     -1.29079130523023
  C   -0.04103234922500     -0.74178308290205      1.27765495467126
  H   1.08698171146475      0.82907632179711      1.90155601181576
  C   -0.48298965835325     -1.36549913455953      0.05455839370306
  O   -0.21095983328891     -1.15109181805460      2.42334330931697
  C   -0.20355384660344     -0.81668247051828     -1.16714313604446
  H   -1.02966068445668     -2.29440744420659      0.15247653247427
  H   -0.55040675712184     -1.31807744455306     -2.06475095610523
  H   0.67827676300662      0.86702610273538     -2.25021286620287
  N   1.58994378829206      3.17018087258582      0.89013575475007
  C   2.58257406978144      2.79590823061602     -1.06512398152627
  C   2.38163216702522      4.25850480253080      0.63844086821727
  H   0.89426496467704      3.13253416411135      1.62066362659803
  C   3.02052846899194      4.04194862753334     -0.56871800435411
  H   2.42244095820963      5.08801029117134      1.32590696611461
  H   3.73763466694996      4.70560444082352     -1.02557039079446
  H   2.91373814022135      2.29534825998551     -1.96208776549268
