20
Coordinates from ORCA-job opt
  C   0.99219070109015      0.99614232568494      0.06233481526432
  N   -0.35931659392665      1.00538836504441     -0.12964627264756
  C   1.65835709345779      2.28596960814612      0.06942289751813
  C   1.63472722057787     -0.20873364507826      0.19860176343623
  C   -1.20379862797010     -0.11159069859744     -0.16499238275321
  H   -0.82273962280050      1.89709218057025     -0.27469618003648
  C   -0.48984685452068     -1.36026514761014     -0.02853998863518
  O   -2.41330030315671      0.03185571874295     -0.31954756999985
  C   0.86658551622187     -1.39620784962179      0.13808737303320
  H   -1.08387416739034     -2.26414557846201     -0.07038799927891
  H   1.36423974214711     -2.35487869244926      0.24149069481292
  H   2.69834267087287     -0.22806700626678      0.39427294376381
  N   2.80578454908634      2.50638369798892     -0.64598404361730
  C   1.31204683031430      3.49087499345438      0.67325920425241
  C   3.20498909838765      3.80651320925829     -0.51132237657909
  H   3.23932785353077      1.81585008223501     -1.24052924061927
  C   2.29117479264162      4.44138104113173      0.31142199902850
  H   4.08607650721166      4.17537696383139     -1.01116380730419
  H   2.33918972915522      5.47302219028969      0.62259001401529
  H   0.47164686506975      3.63724024170757      1.33542815634622
