20
Coordinates from ORCA-job opt
  C   0.98637322757938      1.00154239741672      0.01250637334832
  N   -0.37621522866549      1.00593434650790     -0.06171263622753
  C   1.64013979536567      2.29367682413099      0.01495183770692
  C   1.64125630710272     -0.20361850582713      0.07908354073409
  C   -1.21627081016941     -0.11479012440516     -0.05541202853477
  H   -0.85638132897293      1.89432773877200     -0.16456791947851
  C   -0.49069548016127     -1.36233648898327      0.00183406106227
  O   -2.43449228077469      0.02682589217360     -0.11378932730899
  C   0.87492177627583     -1.39287939928023      0.05899911727878
  H   -1.08283792398986     -2.26824374073406     -0.00977648174560
  H   1.38378519095191     -2.35010699462606      0.10596340232919
  H   2.71608542523102     -0.22745152489446      0.19751183797474
  N   2.87261242690837      2.48165433578948     -0.55171816310793
  C   1.23694375715503      3.51977177224094      0.53816464665692
  C   3.26283494258884      3.78458125993386     -0.41479732955661
  H   3.36101981658552      1.77825108272711     -1.08522867140711
  C   2.26160228203313      4.45186138472327      0.26838952006422
  H   4.20043619415554      4.13214088681462     -0.81772322376318
  H   2.28044083180698      5.49302305907452      0.54936339847040
  H   0.33024207899368      3.69503479844536      1.09805904550438
