20
Coordinates from ORCA-job opt
  C   0.98543105128457      0.99967712295052      0.08088257327501
  N   -0.14022997910884      0.88166340719789     -0.68963974328178
  C   1.65762624342123      2.28904168695788      0.08270636389962
  C   1.39250228054243     -0.07690376337513      0.82402311161746
  C   -0.93507463287902     -0.26250666554228     -0.83705268308238
  H   -0.49163538791209      1.69961698136333     -1.17727927850818
  C   -0.47482576949798     -1.37138095223539     -0.03447226485724
  O   -1.91570467604481     -0.24261230058644     -1.57651617556647
  C   0.63156161635672     -1.26939494504554      0.76246937351603
  H   -1.05723959150523     -2.28217168096337     -0.08866297812468
  H   0.94213037166305     -2.12607278078524      1.35145159499132
  H   2.29268161955727      0.00217981551092      1.41719641999431
  N   2.05818378390413      2.90027210095575     -1.08119028631437
  C   2.07201120000032      3.09652985114287      1.13390832797500
  C   2.71595853281842      4.06545032480080     -0.79853911284334
  H   1.97341532458973      2.49022000720339     -1.99947758832507
  C   2.73095311187312      4.21447506673559      0.57662713463655
  H   3.11604917460963      4.68552488074864     -1.58452614917137
  H   3.15863948796414      5.04796148096097      1.11117027706346
  H   1.87936623836320      2.89762836200484      2.17702208310611
