20
Coordinates from ORCA-job opt
  C   0.98164511992262      1.00556764282404     -0.05039623452943
  N   -0.37779739090022      1.00314994981645      0.06838022451761
  C   1.62972068838599      2.29932435246892     -0.05705534585376
  C   1.63221541409256     -0.20302585961987     -0.11960856534152
  C   -1.21478257339755     -0.11852639652124      0.12056286339160
  H   -0.87462711860127      1.88715792971372      0.08016495436685
  C   -0.49407915804666     -1.36606758436338      0.03402761112057
  O   -2.42976421764539      0.02647620962696      0.22229692032778
  C   0.86748543774085     -1.39172966677437     -0.08437355967414
  H   -1.08374027805181     -2.27305584848698      0.06241286530846
  H   1.37790138157860     -2.34749608891394     -0.14324184262869
  H   2.71185101138616     -0.24426058167483     -0.15957000368162
  N   2.95561073637842      2.45084789664155     -0.36527879467731
  C   1.14965123518600      3.56009181257207      0.29647842004171
  C   3.32636536195171      3.76061459208369     -0.24434177263599
  H   3.54356223114533      1.71841632900254     -0.73134913873360
  C   2.21708873021274      4.47301524744561      0.17346956292471
  H   4.33131754894518      4.07859422429797     -0.47085323281426
  H   2.18905107006314      5.53233547381313      0.37395750080592
  H   0.15312276965359      3.78776936604795      0.64441956776510
