20
Coordinates from ORCA-job opt
  C   0.98817459835117      1.00198276169680     -0.02629376613838
  N   -0.36071720417646      0.99531805264581      0.18053382031086
  C   1.63904484420652      2.29493716715178     -0.02299275778456
  C   1.61991946875802     -0.20342064657568     -0.21984573086364
  C   -1.20171465626071     -0.12335988727686      0.22021995737762
  H   -0.84493823671685      1.87402788841123      0.32532306891864
  C   -0.49931036427208     -1.36647593091651      0.01308922045934
  O   -2.40528322038646      0.02104370015427      0.41725766483787
  C   0.85127371735065     -1.38958116987765     -0.19640141382688
  H   -1.09257304326742     -2.27133989899811      0.03211082502170
  H   1.34980588078702     -2.34120392941454     -0.34903511411879
  H   2.68687222235296     -0.24992660121394     -0.38746548016747
  N   2.98709543416123      2.43787198699841     -0.21830739919898
  C   1.12100815072839      3.57760586503614      0.15953615002166
  C   3.34117697142045      3.75621715254417     -0.16720959824750
  H   3.62904311386747      1.67807715277266     -0.37846664266802
  C   2.19194773645977      4.48911186592216      0.06754253374392
  H   4.36586385831145      4.06394783373109     -0.29991729579942
  H   2.13790811886613      5.56208928842817      0.16149385903575
  H   0.08720360945874      3.83227534878059      0.33892909908629
