20
Coordinates from ORCA-job opt
  C   0.99258142896117      0.98929447235421      0.08259892113044
  N   -0.26464393072049      0.95549425331204     -0.45716385901274
  C   1.67897987840167      2.28239940800869      0.08388052000622
  C   1.53124331475642     -0.16874092178231      0.57534875926517
  C   -1.09621408716753     -0.16524603997851     -0.56621323808726
  H   -0.66859599264111      1.82199723284983     -0.79911261681429
  C   -0.49050572761029     -1.36490405601590     -0.03371305147493
  O   -2.21162658245364     -0.06625612712157     -1.07040655310070
  C   0.76292444794881     -1.35805257576352      0.51057148039327
  H   -1.08452175442008     -2.26852934213746     -0.08485965656319
  H   1.17827510598480     -2.28071167359363      0.90207733712467
  H   2.52306190398393     -0.14731434406625      1.00483654930731
  N   2.43585681709321      2.69858361686852     -0.98332867153801
  C   1.70901019492067      3.29932758851757      1.02813490742566
  C   2.95107344192148      3.94134906037133     -0.74185375268123
  H   2.60181300382524      2.14562957119094     -1.81076550571914
  C   2.51099387359119      4.34002857317887      0.50729117661947
  H   3.58239714529525      4.43449022410339     -1.46325790284846
  H   2.74696755829922      5.27774705189714      0.98512828299215
  H   1.20272996003008      3.27261502780662      1.98090687357561
