20
Coordinates from ORCA-job opt
  C   0.98660375171168      0.99984711441612      0.08749628217847
  N   -0.11885370546051      0.87372722684491     -0.71067651977725
  C   1.66348009513129      2.28503164988794      0.08702836124235
  C   1.37375165182594     -0.06947610492340      0.85202289302238
  C   -0.91233422282130     -0.27100164204067     -0.86362488326550
  H   -0.46233783170681      1.68748664591279     -1.21067653495151
  C   -0.47400354009405     -1.37123849315286     -0.03771037590622
  O   -1.87469656367782     -0.25691006021442     -1.62674724119736
  C   0.61234217354141     -1.26093509693243      0.78541731670430
  H   -1.05657962343127     -2.28167147166780     -0.09575480646717
  H   0.90723521474859     -2.11112552022975      1.39165270882705
  H   2.26136606809953      0.01300040670939      1.46343417411910
  N   2.01480943746526      2.92021695651096     -1.07999289838164
  C   2.11622620081416      3.07464322666878      1.13632174545621
  C   2.68357078884207      4.08032901664141     -0.80129564511555
  H   1.90616331001814      2.52228608372101     -2.00118207827405
  C   2.75217940230397      4.20335875128402      0.57477775179255
  H   3.05364391019013      4.71469524549792     -1.59057500298988
  H   3.19841374510666      5.02805223422181      1.10786293314060
  H   1.96082173739291      2.85888483084425      2.18232181984311
