20
Coordinates from ORCA-job opt
  C   0.87657381856292      1.06668311665127      0.01748420107634
  N   1.14893756499881      0.11541260171579     -0.92224734125659
  C   1.63890088517915      2.29401072502841     -0.06228743125054
  C   -0.06337911593241      0.78291621037945      0.97909375018843
  C   0.55996586475839     -1.15049835730634     -1.03177245365433
  H   1.81067212447783      0.32581516870284     -1.66136192015246
  C   -0.42815303718682     -1.40442351428225     -0.01079325075820
  O   0.89749545397514     -1.90824982345334     -1.93700822974741
  C   -0.71912657539460     -0.46918181635863      0.94272419519141
  H   -0.92652930784104     -2.36450755509991     -0.04232300168721
  H   -1.46494577522222     -0.69449341489945      1.69801637913985
  H   -0.26812046398231      1.48848020400795      1.77229719301289
  N   1.32987910177343      3.39632101057753      0.68961709150193
  C   2.79982063250029      2.60041430610406     -0.77177104123320
  C   2.23490782856054      4.39536504596373      0.46508996917142
  H   0.49448605323500      3.49170648078414      1.24565199755373
  C   3.16672523438364      3.92073068290073     -0.43990871931027
  H   2.14037492373729      5.35277367239049      0.95168914980821
  H   4.01944591846173      4.46780902807810     -0.80965541598577
  H   3.34386887095523      1.93211722811542     -1.42243212160823
