20
Coordinates from ORCA-job opt
  C   0.98787444737329      1.00106363977128      0.10377476817968
  N   -0.05490833746805      0.84765526122667     -0.76976276230369
  C   1.68767681749361      2.26976175301462      0.09150072950213
  C   1.31603656693613     -0.04549377486573      0.92695492431268
  C   -0.84765570688034     -0.29730755735449     -0.93283065113375
  H   -0.37657488194981      1.64714778953863     -1.30549044697024
  C   -0.47362048750521     -1.37094626128739     -0.04433752110889
  O   -1.75848118588057     -0.30044387063962     -1.75695908863367
  C   0.55368659454008     -1.23426380763873      0.84841001800912
  H   -1.05634198620045     -2.28059355374640     -0.11091423721281
  H   0.80222581095614     -2.06412530370393      1.50182985247828
  H   2.16444552974123      0.04878433871783      1.59017517747190
  N   1.89674908717220      2.97716728127090     -1.06827600751108
  C   2.24348770276286      3.00953570311338      1.12881286846133
  C   2.59249576588622      4.12479170278092     -0.79967740858700
  H   1.72838986030631      2.61505879926665     -1.99543636701466
  C   2.81028784945507      4.17271132712178      0.56524450470440
  H   2.87523481517835      4.80281650841140     -1.58878193664589
  H   3.30706463503178      4.97209979560858      1.09217570597480
  H   2.19372710305114      2.74377922939364      2.17368787802737
