20
Coordinates from ORCA-job opt
  C   0.98739233814812      1.00174230834242      0.10648628914553
  N   -0.03895682081890      0.83984851037117     -0.78464554553712
  C   1.69465530322926      2.26555244621525      0.09018034581842
  C   1.30062639038974     -0.03833844462293      0.94408430224710
  C   -0.83199774292959     -0.30512577423536     -0.94852850512488
  H   -0.35527899962481      1.63477675878080     -1.33007777965488
  C   -0.47398896122771     -1.37112257445442     -0.04482515255439
  O   -1.73015081915044     -0.31320782784678     -1.78641725481695
  C   0.53848638879652     -1.22672173192873      0.86367780114435
  H   -1.05661481838656     -2.28072768885968     -0.11244946526835
  H   0.77545493257648     -2.05069552400463      1.52875780235813
  H   2.13854535493286      0.05992996537456      1.61994093248301
  N   1.86894344545413      2.99202259079052     -1.06361424815422
  C   2.27508676181823      2.99254087327796      1.12348059719534
  C   2.57083007330237      4.13658813640637     -0.79669642670131
  H   1.68640646565482      2.64031271465705     -1.99212736655887
  C   2.82464828707666      4.16490471349593      0.56244082726385
  H   2.83230100805272      4.82598233148983     -1.58327781454580
  H   3.33377102677648      4.95746507264134      1.08791053002702
  H   2.25164138592963      2.71347114410933      2.16580113123399
