20
Coordinates from ORCA-job opt
  C   0.99172051398887      1.00005147413192      0.10470852678977
  N   0.31862104555306      0.63172219798557     -1.02821958078404
  C   1.70260160267048      2.26079554338443      0.08754392834019
  C   0.91903957205035      0.18243289433406      1.20446140847343
  C   -0.45172657074335     -0.52747152858941     -1.20627988577403
  H   0.45496419688649      1.15632616132575     -1.88556190459514
  C   -0.49558027013492     -1.36027377186762     -0.02997493565054
  O   -0.98755830344500     -0.74365772494936     -2.29034432971453
  C   0.17537103903348     -1.01575439316056      1.11162464150347
  H   -1.06860390575043     -2.27547416998722     -0.10245329572711
  H   0.12160700500276     -1.67046708969326      1.97525905004216
  H   1.40129103472436      0.48548145871545      2.12314103030064
  N   1.36719644063759      3.28550241880636     -0.76513138029629
  C   2.83053448274607      2.66900221265682      0.79239269823223
  C   2.21930336210712      4.34273197955722     -0.58747241853006
  H   0.49969213316868      3.34198602024047     -1.27817636931242
  C   3.14847379390969      3.97640887717228      0.36868594136418
  H   2.09330317002114      5.25791316198644     -1.14326493366932
  H   3.97403762867502      4.58362562615453      0.70496188672291
  H   3.37751302889854      2.05831765179610      1.49419792228450
