20
Coordinates from ORCA-job opt
  C   0.96250513389598      1.01176437581761      0.08695790319058
  N   0.50958838258615      0.49756982516144     -1.09852070400777
  C   1.73063474008550      2.24753759076306      0.02612797358256
  C   0.70737662159613      0.32556095348442      1.24457234179499
  C   -0.24045016056024     -0.67299482281502     -1.26860397842890
  H   0.75897878140549      0.96549155189592     -1.96414303952116
  C   -0.48394718268534     -1.36720279771556     -0.02548408833916
  O   -0.60388855166460     -1.01810306449641     -2.39003296008768
  C   -0.02013661717743     -0.88722684093589      1.16765900196433
  H   -1.04386837764610     -2.29139090157271     -0.08969043958076
  H   -0.22346692134410     -1.44138695161014      2.07802355060209
  H   1.04880060266149      0.73439555935861      2.18515274970645
  N   1.19889388090996      3.40826154172191     -0.48222494781831
  C   3.00861694561730      2.54613977059971      0.47954478464951
  C   2.09976429026879      4.43008638384765     -0.36463881444548
  H   0.24967524523232      3.50473777792260     -0.81096742572419
  C   3.23987199205910      3.91654423772514      0.22688793405828
  H   1.86245006362290      5.42560865995793     -0.70366465545879
  H   4.14009783281465      4.47190043350618      0.43782954207453
  H   3.69030529832204      1.83190871738356      0.91531627178889
