20
Coordinates from ORCA-job opt
  C   0.99060444732712      0.99773085876755      0.04938247116443
  N   -0.36493547715777      1.00571162944393     -0.11005049021474
  C   1.65287034807539      2.28820037564306      0.05544162093642
  C   1.63760256798122     -0.20722658306148      0.16526202351113
  C   -1.20823428790556     -0.11244679551263     -0.13374898634548
  H   -0.83321683868856      1.89660511393646     -0.24364397681630
  C   -0.49001705760526     -1.36081584186562     -0.02049896443790
  O   -2.42100702472670      0.03041196047787     -0.26110685989368
  C   0.86994501298783     -1.39527662984778      0.11516350543667
  H   -1.08357447987868     -2.26530509370729     -0.05452242467102
  H   1.37142483055179     -2.35359690731502      0.20201222016397
  H   2.70484003470345     -0.22752441332871      0.34005431699064
  N   2.82594804001716      2.49876260859916     -0.61973638364058
  C   1.28920779264857      3.49962217587738      0.63646692070409
  C   3.22232376095884      3.79987445455761     -0.48529377583548
  H   3.27516927909490      1.80406900757713     -1.19751962181445
  C   2.28215726141739      4.44455637530822      0.29922523107413
  H   4.12005701220227      4.16249293265028     -0.95941591944620
  H   2.32151908374703      5.47913530385209      0.60168362340298
  H   0.42911469424958      3.65421846794779      1.27094446973135
