20
Coordinates from ORCA-job opt
  C   0.99815557542513      0.98907290579745      0.10513260361716
  N   -0.32353856464569      0.99833545487171     -0.24220370448932
  C   1.68362068999507      2.27646779873428      0.11167728592980
  C   1.60743660181645     -0.21147549977289      0.36223212409979
  C   -1.17100246860915     -0.11336494731485     -0.32624743017108
  H   -0.76127894666335      1.89016777200580     -0.45259387541936
  C   -0.49020892471161     -1.35876085820485     -0.05295666487154
  O   -2.35414311462522      0.02863144138613     -0.62194852188142
  C   0.83723970953571     -1.39682675842431      0.27034229164619
  H   -1.08657168023475     -2.25975699695332     -0.11942855880131
  H   1.30830248582336     -2.35320254415708      0.47215521087399
  H   2.64771154807960     -0.22534158525654      0.65730659148385
  N   2.68509279650200      2.55794084976227     -0.78189216091973
  C   1.44881500202702      3.43511563744922      0.84261199321915
  C   3.10712249745425      3.84856891606544     -0.62935144074520
  H   3.03047454204660      1.90084991536329     -1.46542238844214
  C   2.35192623115509      4.41810033730037      0.38051841693033
  H   3.89506215395194      4.25549354422502     -1.24235363947271
  H   2.45462925847670      5.42751440105032      0.74655643109510
  H   0.72295460720084      3.53166821607254      1.63596543631843
