20
Coordinates from ORCA-job opt
  C   0.97825557136453      1.00897755737631      0.10395719500001
  N   0.04922275983893      0.78003402874501     -0.87386263721297
  C   1.72651658203132      2.24729704012405      0.06330940234344
  C   1.20430613582760      0.01892036777262      1.02852900371921
  C   -0.74441862665326     -0.36731415469510     -1.02861972406640
  H   -0.22768747877601      1.53004781228958     -1.49705192792530
  C   -0.47610260741624     -1.37685117555983     -0.03619847084878
  O   -1.56903679145384     -0.41711289698380     -1.93800051518151
  C   0.45018294419308     -1.17264920374491      0.95014145190252
  H   -1.05488237007990     -2.28902698375486     -0.09979824222880
  H   0.62262695745432     -1.95210873717267      1.68507545401300
  H   1.97099425092835      0.15475604464079      1.77799094424204
  N   1.72102859686650      3.08950286617111     -1.02317885792711
  C   2.44929044582696      2.88759473475273      1.06712358092531
  C   2.46073809683458      4.21074918719919     -0.75545913632582
  H   1.42866640792554      2.82914202160721     -1.95328110453167
  C   2.91305849054976      4.11286486923923      0.54730148989545
  H   2.60780983665591      4.97122183982290     -1.50536967078205
  H   3.50066951413256      4.85459504281228      1.06492030558705
  H   2.58056428394931      2.51856173935816      2.07257245940237
