20
Coordinates from ORCA-job opt
  C   0.97010783798954      1.00696118070376      0.10840459135447
  N   0.95627348810855      0.24894473675360     -1.02761125975723
  C   1.73562616399949      2.24373346923529      0.05985785211369
  C   0.23184875408362      0.59671613285647      1.18881344753393
  C   0.28797742912275     -0.96849986705654     -1.20894525208505
  H   1.47784275262424      0.57736216003599     -1.83464582891523
  C   -0.48316738542930     -1.36264448592227     -0.05209473737129
  O   0.37815936074286     -1.57286673004555     -2.27392259197521
  C   -0.50873499416139     -0.60597470932543      1.08609441587775
  H   -1.04187354471700     -2.28601958110149     -0.13552796189374
  H   -1.09747042963553     -0.94063076068453      1.93386244959253
  H   0.26009176943249      1.17455561179902      2.10259389707477
  N   1.15233739270932      3.45738149344978      0.31648370821036
  C   3.05185488219000      2.49142827557448     -0.31444905379421
  C   2.05703168875067      4.46522817237406      0.13464751119730
  H   0.17955951929112      3.57373006332294      0.55833548872807
  C   3.25250152266668      3.88813516858716     -0.25623696219406
  H   1.78354613912352      5.49663215490993      0.28828842903573
  H   4.16722137383966      4.42089525830979     -0.46321209303426
  H   3.78106627926876      1.73413325622351     -0.56063604969831
