19
Coordinates from ORCA-job opt
  C   1.00765423553105      0.91845167383382     -0.03688830484694
  C   -0.44873026627667      0.83111297125656     -0.13377739233766
  C   1.80694954451112      0.90610247631981     -1.18727484530615
  C   1.63041206900938      1.02818764876335      1.21260378661463
  C   -1.41938983468333      1.40976588113243      0.74318700322415
  C   -1.17448595331674      0.16197290990089     -1.08713355262104
  C   -2.64196294597829      1.05834182885013      0.25364241753298
  H   -1.23309064154803      2.03161148879935      1.60472030775214
  O   -2.50653321365638      0.29330714874803     -0.86183932015305
  H   -3.65349077586867      1.26640294584459      0.55981014315095
  H   -0.89686740183083     -0.45077157797322     -1.92921956081511
  C   3.19225146556227      0.99073564551864     -1.08946505412967
  H   1.33455151020144      0.85678462092816     -2.16295725135839
  C   3.80188013826529      1.10300833781842      0.15892467432635
  H   3.79614999062338      0.98372197291532     -1.99006667887908
  C   3.01554947133155      1.12157742037761      1.30927772100556
  H   4.88067149974455      1.17698695005535      0.23437008736220
  H   3.48203027026416      1.20542435459075      2.28456587022057
  H   1.02394983811476      1.02197430232000      2.11212094925754
