19
Coordinates from ORCA-job opt
  C   1.00733849484480      0.92800115705405     -0.03708802562569
  C   -0.44875438728266      0.83576692727088     -0.13329946148574
  C   1.80612554879633      0.91446612862521     -1.18780316279894
  C   1.63058579654970      1.03317324261692      1.21248699486076
  C   -1.42212522643156      1.41371203491667      0.74141987753524
  C   -1.17151587368917      0.16004723120695     -1.08416094426866
  C   -2.64297792363728      1.05493107109775      0.25268046119607
  H   -1.24004406388215      2.03915365638769      1.60121838304068
  O   -2.50424007783245      0.28663687533979     -0.86015631104330
  H   -3.65534870583697      1.26010646004223      0.55806037669310
  H   -0.89039375143984     -0.45515095962027     -1.92330738420570
  C   3.19200519576654      0.99080886066409     -1.09001673942232
  H   1.33287780793429      0.86898973188026     -2.16322381840065
  C   3.80250689195975      1.09555698436453      0.15861079639876
  H   3.79556184493241      0.98223341437487     -1.99080357428131
  C   3.01634430638018      1.11845532791530      1.30907017436480
  H   4.88175186413147      1.16210666181760      0.23409455313674
  H   3.48324375192771      1.19747676772170      2.28452964571954
  H   1.02455850680887      1.02822742632378      2.11229015858661
