19
Coordinates from ORCA-job opt
  C   1.00384455262258      0.92104366324851      0.04832579541148
  C   -0.45595343352324      0.83693460308361      0.03709637206460
  C   1.65574862538613      2.02798828803859     -0.50915074876532
  C   1.77862460412815     -0.10170926136880      0.61160228421135
  C   -1.35672178453837      1.36159440710538     -0.94133552518087
  C   -1.25399388670154      0.24235435354626      0.98308404206498
  C   -2.61412943220873      1.04627766888213     -0.51976777674141
  H   -1.09531875700546      1.87932440977838     -1.85082424789007
  O   -2.56561123559151      0.36450099391782      0.65470952401123
  H   -3.59681720383722      1.21479749971886     -0.92717620297160
  H   -1.04444314302160     -0.25047846397584      1.91833617273974
  C   3.04484862426837      2.11269732204907     -0.49957717406080
  H   1.06673774729655      2.83253899625026     -0.93659549620253
  C   3.80554201893023      1.09423342993934      0.07126901831172
  H   3.53394793132981      2.97733403047831     -0.93412013891191
  C   3.16678102210957     -0.01214393850157      0.62861904785330
  H   4.88728568299557      1.16159193144514      0.08122368964845
  H   3.75199678100935     -0.81323005920783      1.06626772757234
  H   1.28513128635134     -0.98095187442767      1.01261463683531
