19
Coordinates from ORCA-job opt
  C   1.00428541551983      0.91983806052044      0.04717083014343
  C   -0.45547129349704      0.83602829012485      0.03813346180860
  C   1.65513396390986      2.02542510930227     -0.51422202633217
  C   1.77957485143694     -0.09896583682705      0.61583933946559
  C   -1.35609683240553      1.36912524311386     -0.93695493365239
  C   -1.25363477284023      0.23426109729516      0.97842433321241
  C   -2.61309038246731      1.04501842413298     -0.52133802988321
  H   -1.10094669311476      1.89554302552441     -1.84328471915607
  O   -2.56481798903364      0.35503460892532      0.64892646637267
  H   -3.59690667818425      1.21402113359842     -0.92601267470972
  H   -1.04564904430694     -0.26780563072386      1.90917537879470
  C   3.04404888886106      2.11189907969829     -0.50354063703330
  H   1.06582032756006      2.82925465469992     -0.94263457225984
  C   3.80570528572584      1.09699375418172      0.07250774022927
  H   3.53235356010982      2.97564547130334     -0.94094451026361
  C   3.16778829946786     -0.00778305470746      0.63398604251936
  H   4.88751348038370      1.16465053762055      0.08085541706969
  H   3.75324633352622     -0.80648878012813      1.07572794221615
  H   1.28864127934851     -0.97699418765505      1.02278415145843
