19
Coordinates from ORCA-job opt
  C   1.00166475615923      0.98978718433525      0.04449530407654
  C   -0.46025348998860      0.96566574133603      0.02673813666445
  C   1.69778930511796      2.16684138031200      0.34833813918917
  C   1.73420881327474     -0.16691355180378     -0.24943221497692
  C   -1.31192383455778      0.15891620894331     -0.79164832215587
  C   -1.30755347884664      1.71158374843427      0.80717386805523
  C   -2.59247088318710      0.48103265247377     -0.45328330512515
  H   -1.01278526276800     -0.54458612510111     -1.55273017647423
  O   -2.60378394245574      1.42601198595662      0.52376199656833
  H   -3.55801624817272      0.15381573083480     -0.80096765708703
  H   -1.14390625354879      2.42915694565309      1.59455200259026
  C   3.08886523375410      2.18315600125884      0.36910590662927
  H   1.14185028325167      3.07811736728174      0.54345283687514
  C   3.80851137039678      1.02670918542748      0.07323704315432
  H   3.61210512716207      3.10367387073190      0.60293200467208
  C   3.12568383969511     -0.14779808791308     -0.23712973555627
  H   4.89231707510872      1.04148720022407      0.08210243979875
  H   3.67770305280756     -1.05263483354594     -0.46593985480857
  H   1.20749053679741     -1.08932260483927     -0.47015941208950
