19
Coordinates from ORCA-job opt
  C   1.00421766475683      0.92365107526715      0.05374962391068
  C   -0.45539568806493      0.83763749311932      0.04051999596417
  C   1.65471058722811      2.02930758700908     -0.50780371933669
  C   1.77930028485468     -0.09722355176380      0.61897465704630
  C   -1.35458482023489      1.36738416243340     -0.93826349889309
  C   -1.25513218608541      0.23629680994204      0.97954833484479
  C   -2.61189930804567      1.04068828506426     -0.52531326226500
  H   -1.09957919580918      1.89344863331303     -1.84474506233622
  O   -2.56587500004055      0.35268085729944      0.64628926232544
  H   -3.59476485859871      1.20676141094664     -0.93353376673404
  H   -1.04773698713397     -0.26340662732098      1.91172069766878
  C   3.04396499327487      2.11320931133916     -0.50197131699865
  H   1.06548479181669      2.83421357925705     -0.93416231992250
  C   3.80577511387315      1.09536306252627      0.06881866038411
  H   3.53207633821147      2.97677839514313     -0.93980514492975
  C   3.16789472659901     -0.00838575713087      0.63231583765593
  H   4.88771448206413      1.16052839410333      0.07254867356319
  H   3.75337229934801     -0.80908063471708      1.07030437262215
  H   1.28795576198636     -0.97515348583057      1.02540897543040
