19
Coordinates from ORCA-job opt
  C   1.00503439695175      0.91405285569808      0.03573523415386
  C   -0.45495034390568      0.83436195584970      0.03293677583606
  C   1.65615261033546      2.02151659179516     -0.52162329652485
  C   1.77940905178421     -0.10422615313706      0.60665021026858
  C   -1.35933614445200      1.36724188767925     -0.93904241889078
  C   -1.24982355925337      0.23766994736283      0.97915916867632
  C   -2.61496000760017      1.04844526529119     -0.51512344764907
  H   -1.10765289226751      1.89076267070579     -1.84797804518994
  O   -2.56248605405069      0.36133205362563      0.65669777416230
  H   -3.60048868060382      1.21956288142658     -0.91472631442877
  H   -1.03773936889318     -0.26188824256495      1.91033909253140
  C   3.04475803162239      2.11191020517095     -0.50181659904689
  H   1.06693635975067      2.82443288418462     -0.95183367687366
  C   3.80535818792368      1.09955062691372      0.08021822370677
  H   3.53355949597632      2.97767568506365     -0.93457479777692
  C   3.16723540045994     -0.00897248768760      0.63409285891511
  H   4.88679652135900      1.17106485642587      0.09696785981834
  H   3.75223129500923     -0.80648831951470      1.07852108397172
  H   1.28746669985375     -0.98330616428871      1.01000331434041
