19
Coordinates from ORCA-job opt
  C   1.00236859155173      0.99834849787239      0.01389086918537
  C   -0.45948158827789      0.97846060219450     -0.00418860654046
  C   1.72761810227249     -0.19894673254381      0.05273925484290
  C   1.70483689920481      2.21039161092130      0.00759684006237
  C   -1.31523902546977     -0.01163281676370     -0.58224032923128
  C   -1.30318654414684      1.90986485409914      0.54692817364718
  C   -2.59401427132067      0.39643227525496     -0.34565867867783
  H   -1.01852818055157     -0.89364107041728     -1.12777247302770
  O   -2.60092352334311      1.56682345816932      0.34587200224919
  H   -3.56123669927277     -0.00576009346835     -0.59653237440928
  H   -1.13565835675781      2.80958460567286      1.11621260313352
  C   3.11868120798976     -0.18447987417281      0.09188849322946
  H   1.19440082621929     -1.14348386227285      0.07473881071995
  C   3.80758320701812      1.02691773927966      0.09845373258804
  H   3.66568525119049     -1.12012218677371      0.12505380594523
  C   3.09525832677183      2.22426432905452      0.05586448700296
  H   4.89097440120140      1.03778745550452      0.13068505813823
  H   3.62421000829871      3.17079241099591      0.04897802990850
  H   1.15415236742181      3.14309879739344     -0.05791069876637
