19
Coordinates from ORCA-job opt
  C   1.00528430201318      0.91298784845108      0.03321594810622
  C   -0.45496202266875      0.83418458104297      0.03166397462203
  C   1.65656272581181      2.02072467578080     -0.52335310104987
  C   1.77935512431781     -0.10507119092102      0.60492495286171
  C   -1.36031564918537      1.36721850688660     -0.93925122862619
  C   -1.24880442212781      0.23803793778252      0.97904210510070
  C   -2.61547238504204      1.04956792042557     -0.51341201139063
  H   -1.10913748865415      1.89013280950941     -1.84871391021170
  O   -2.56164683121115      0.36229043145651      0.65809324013818
  H   -3.60150878493024      1.22099174912404     -0.91167926639965
  H   -1.03560795177691     -0.26156622408232      1.90995419628519
  C   3.04502322474092      2.11176742722874     -0.50155725903412
  H   1.06717236689268      2.82334708674506     -0.95392990928821
  C   3.80522605320509      1.09988214925574      0.08169391190152
  H   3.53416525538482      2.97771844531472     -0.93363143844364
  C   3.16700905246849     -0.00924049961205      0.63417289209720
  H   4.88661873869555      1.17215010020513      0.10019794077915
  H   3.75188045682713     -0.80640454401788      1.07945902043440
  H   1.28665723523891     -0.98401821057561      1.00770994211770
