19
Coordinates from ORCA-job opt
  C   1.00401030907641      0.92454707861147      0.05525117649460
  C   -0.45562143118064      0.83785637539157      0.04121953325547
  C   1.65468988993627      2.02985599250382     -0.50668876686588
  C   1.77939263502096     -0.09629480965090      0.62001711574767
  C   -1.35417896920696      1.36730322914222     -0.93801840300369
  C   -1.25565159304840      0.23552265673065      0.97938734783531
  C   -2.61169403040659      1.04044476571536     -0.52603423780592
  H   -1.09851280173561      1.89345454365521     -1.84432336067157
  O   -2.56595022753149      0.35222577640618      0.64530043318584
  H   -3.59437264964308      1.20629147088545     -0.93480575263430
  H   -1.04931984154325     -0.26442654956822      1.91167181928690
  C   3.04388210490513      2.11318352891377     -0.50211654467554
  H   1.06561126313285      2.83507126013822     -0.93280230009410
  C   3.80591570186731      1.09500700067651      0.06773389149064
  H   3.53191908947185      2.97651365933360     -0.94059830054779
  C   3.16794232305223     -0.00824600218751      0.63216463302093
  H   4.88791879488918      1.15963366453208      0.07025771141688
  H   3.75335356888930     -0.80917095689207      1.06988880485633
  H   1.28816586405454     -0.97407168433743      1.02709419970821
