19
Coordinates from ORCA-job opt
  C   1.00184462902126      0.99055279558895      0.04154860966759
  C   -0.46007715792175      0.96594102500946      0.02531710655539
  C   1.69766969968686      2.16761809502772      0.34600427643872
  C   1.73426182911621     -0.16651213785517     -0.25121846013858
  C   -1.31268573674531      0.15909091645250     -0.79242219393160
  C   -1.30660847794064      1.71103777644713      0.80716596909008
  C   -2.59278528110170      0.48100300634388     -0.45224820644711
  H   -1.01434204531247     -0.54397782498995     -1.55416310345598
  O   -2.60328824710005      1.42506739175270      0.52578908747251
  H   -3.55872994409321      0.15365995805625     -0.79871711248325
  H   -1.14193521064538      2.42827197228391      1.59464177699822
  C   3.08879805138935      2.18325136586969      0.36935137446216
  H   1.14167826100543      3.07902659689786      0.54014065728868
  C   3.80841582778720      1.02626403187233      0.07558989452061
  H   3.61206820882589      3.10358209199890      0.60376350808447
  C   3.12576899545751     -0.14796448760187     -0.23638681936762
  H   4.89219071322475      1.04052921881331      0.08677642313674
  H   3.67786333654719     -1.05308641972216     -0.46377633357562
  H   1.20739154879885     -1.08865537224545     -0.47255545431542
