19
Coordinates from ORCA-job opt
  C   1.00844859137470      0.90514902306546     -0.03592446965217
  C   -0.44835598228024      0.82495854178001     -0.13322076874776
  C   1.80727299528609      0.89858783398841     -1.18672719482452
  C   1.63084101589322      1.01713501605196      1.21355394976145
  C   -1.41640701008134      1.41073638915688      0.74211697429273
  C   -1.17729792331280      0.15851315755643     -1.08600356716239
  C   -2.64054267099662      1.06523410493588      0.25206218594084
  H   -1.22717770155267      2.03259831552736      1.60294692662015
  O   -2.50878481503036      0.29798903533289     -0.86237007951604
  H   -3.65109193950072      1.27959722652849      0.55712306388877
  H   -0.90214300040512     -0.45689622829109     -1.92696913260320
  C   3.19194377194445      0.99402263735853     -1.08946346792963
  H   1.33407957210232      0.84785939928437     -2.16191281623538
  C   3.80093952958350      1.11262849028900      0.15868266871010
  H   3.79548170248459      0.99312892087650     -1.99029682607403
  C   3.01527868421996      1.12149766378153      1.30965610065770
  H   4.87899208356485      1.19677947451152      0.23365796927770
  H   3.48167242574040      1.20829460646441      2.28469669859000
  H   1.02434967096580      1.00688839180148      2.11299278500568
