19
Coordinates from ORCA-job opt
  C   1.00638731745396      0.97525654649708     -0.05467161950302
  C   -0.45111330485403      0.90878506653706     -0.15517238686107
  C   1.82113909884302      0.47015852609789     -1.07622709019393
  C   1.61484580743641      1.51918951944286      1.08329685915580
  C   -1.39492244551601      0.76229478753778      0.90976821886788
  C   -1.20448790488725      0.98350313404594     -1.29974365547813
  C   -2.63005050894707      0.75119228758830      0.33346796999427
  H   -1.18095394719009      0.64829026114888      1.96087458442567
  O   -2.52803258236195      0.88802681119351     -1.01503126851256
  H   -3.63022121731466      0.64967048512344      0.72026462891781
  H   -0.95441001085209      1.12949583398279     -2.33793150654456
  C   3.20725622357967      0.51412084835291     -0.96503655288998
  H   1.36030394572568      0.01444265191269     -1.94656039022699
  C   3.80268012030901      1.05002416731637      0.17557858215339
  H   3.82362698491457      0.11361157075767     -1.76221242006084
  C   3.00128802902185      1.55496284773628      1.19770056372727
  H   4.88252914284660      1.07502605380510      0.26651469216506
  H   3.45700123518713      1.97840452884756      2.08587055696109
  H   0.99463201660527      1.92824507207590      1.87385023390284
