19
Coordinates from ORCA-job opt
  C   1.00239680753120      1.00048046046816      0.01159328940640
  C   -0.45777450339126      0.99000815610749     -0.06155202228835
  C   1.74166579101662     -0.11371583608266     -0.40447151349628
  C   1.68993119390232      2.12283831162109      0.49147430443443
  C   -1.33334643607285     -0.13290905535831      0.07879550430961
  C   -1.27998197764525      2.06388035721972     -0.29334014749577
  C   -2.60154947537648      0.34416973839066     -0.06875613538765
  H   -1.05804298027691     -1.15388870705015      0.29212031541015
  O   -2.58320406308726      1.68404202222040     -0.29942455583010
  H   -3.57676724881225     -0.11173371549965     -0.03138239098572
  H   -1.09112164738260      3.10544070686097     -0.49642556514712
  C   3.13214544871959     -0.10377933363398     -0.34741296153268
  H   1.22134783141383     -0.98258528568011     -0.79347736905313
  C   3.80688768500429      1.02175449127552      0.12171811143745
  H   3.69033902248683     -0.97355045969609     -0.67564942518963
  C   3.08042705812124      2.13540860169130      0.53982667922396
  H   4.88995340080135      1.02936168488233      0.16532395670652
  H   3.59758339722167      3.01107383960057      0.91611819726744
  H   1.12661169582593      2.97840402266274      0.84951972821049
