19
Coordinates from ORCA-job opt
  C   1.00901126565650      0.89447001643972     -0.03541799070144
  C   -0.44803227135620      0.81957920120559     -0.13290798046889
  C   1.80764753356784      0.89187337776759     -1.18639094948274
  C   1.63108713169185      1.00931336664466      1.21397074659755
  C   -1.41377363368243      1.40962956379436      0.74217652835221
  C   -1.17966700057842      0.15629433527856     -1.08578427355111
  C   -2.63925667878070      1.06993492772500      0.25149523216621
  H   -1.22210603455493      2.03059513283558      1.60311640731630
  O   -2.51062898632842      0.30196750508876     -0.86286961603591
  H   -3.64891220504860      1.28891525057470      0.55625767171266
  H   -0.90697443729006     -0.46016944129316     -1.92680480526398
  C   3.19167506619370      0.99648999232900     -1.08948728388557
  H   1.33444139476655      0.83908916055926     -2.16146598800188
  C   3.80002295831139      1.12116815622429      0.15839807945920
  H   3.79501747691145      0.99979065507412     -1.99044870109803
  C   3.01484122433412      1.12285274007510      1.30972332190460
  H   4.87741496741939      1.21373022651856      0.23302620229753
  H   3.48100549921384      1.21297993786128      2.28457302319612
  H   1.02468772955311      0.99619389529701      2.11344137548718
