19
Coordinates from ORCA-job opt
  C   1.00221208497696      0.95604481888723      0.07928926857855
  C   -0.45746662111970      0.87074996752825      0.06355752665322
  C   1.76297947483709      0.11122869613183      0.89785495972503
  C   1.66856183962333      1.86149155726810     -0.75573160738494
  C   -1.33571762165107      1.11931971181990     -1.03807264845349
  C   -1.27733958987895      0.54096528473528      1.11343002052399
  C   -2.60203441765018      0.91391137956275     -0.57745066646417
  H   -1.06014209085923      1.38439049502542     -2.04670399812438
  O   -2.58082403636929      0.56295203617304      0.73578147746052
  H   -3.57648035323400      0.96460391033766     -1.03364235953206
  H   -1.08988459024537      0.30723413892246      2.14877402930413
  C   3.15283710058269      0.17416214607536      0.88481217200141
  H   1.25865262470462     -0.61855064139955      1.52279078371914
  C   3.80645755317143      1.07163864966809      0.04207531147248
  H   3.72720098759739     -0.49141652911483      1.51952288332881
  C   3.05899772892062      1.91782405008589     -0.77483253052245
  H   4.88944563531432      1.11293169749058      0.02402578013162
  H   3.55993846425812      2.62315090551140     -1.42852814366256
  H   1.09010582702120      2.53206572529115     -1.38235325875483
