19
Coordinates from ORCA-job opt
  C   1.00629413338397      0.97759229645208     -0.05592898130040
  C   -0.45096217205462      0.91003707953700     -0.15581068523921
  C   1.82105224381669      0.47150695584468     -1.07702163452871
  C   1.61466388405083      1.52103696584414      1.08233558971904
  C   -1.39417691076899      0.76247219744653      0.90962675743430
  C   -1.20503931121441      0.98411532142248     -1.29995796440334
  C   -2.62956329429519      0.75012765494231      0.33382641361343
  H   -1.17979180831097      0.64879865861237      1.96065510705258
  O   -2.52851368413441      0.88775381146582     -1.01481214099955
  H   -3.62941413558545      0.64792649556177      0.72121056795470
  H   -0.95556880688675      1.13054846452762     -2.33822759538126
  C   3.20720127157642      0.51345919377392     -0.96472660202683
  H   1.36041341576123      0.01605339481470     -1.94757126241538
  C   3.80254665113164      1.04789246736919      0.17667525789381
  H   3.82362020596658      0.11180593221043     -1.76125111685266
  C   3.00112888544084      1.55458171266486      1.19796092756779
  H   4.88232182287995      1.07089821332206      0.26862017082602
  H   3.45679975960457      1.97727812426725      2.08646830526982
  H   0.99448484963808      1.93081505992079      1.87252988581585
