19
Coordinates from ORCA-job opt
  C   1.00525789500733      0.91066178210720      0.03424905572676
  C   -0.45167586139437      0.79742285631209     -0.01082855160513
  C   1.68223987842779      1.72504839802253     -0.88203851267845
  C   1.75183902138440      0.20564544316280      0.98719804413856
  C   -1.39488355758470      1.79323239606962     -0.41788173668239
  C   -1.20452794927812     -0.30106682209563      0.32029291383783
  C   -2.62993587423327      1.22990903252492     -0.29463067145763
  H   -1.18372318686703      2.80376186059666     -0.73060220074648
  O   -2.52786467019843     -0.05012870982770      0.15213086951154
  H   -3.63117696413195      1.58792515034785     -0.46653342162692
  H   -0.95050574594823     -1.29710220992715      0.64440875001096
  C   3.06979126383766      1.82743012086913     -0.84978958855220
  H   1.11635372171024      2.26295145673183     -1.63526887591324
  C   3.80396370583710      1.11369459077689      0.09562327054059
  H   3.57943340138827      2.46029773868155     -1.56775139762377
  C   3.13967501921798      0.30146544481415      1.01314867140306
  H   4.88469097933289      1.19315952769398      0.12002179597414
  H   3.70290795869997     -0.24886543600313      1.75856585356773
  H   1.23563896479246     -0.40074462085761      1.72428373217502
