19
Coordinates from ORCA-job opt
  C   1.00790537085522      0.91722683977457     -0.03659840078405
  C   -0.44837063900624      0.82678072702196     -0.13214663179706
  C   1.80569991176618      0.90837820929204     -1.18810908958373
  C   1.63151151508680      1.02863607123158      1.21228740186228
  C   -1.41982882945070      1.40622096274876      0.74348551375766
  C   -1.17318908195122      0.15333261718817     -1.08314739271958
  C   -2.64186817266897      1.05044424059830      0.25562645090484
  H   -1.23481127818069      2.03093731435609      1.60317911750328
  O   -2.50549533458256      0.28256637941311     -0.85791748053060
  H   -3.65371740960400      1.25712436772985      0.56164305910517
  H   -0.89421487525896     -0.46144402601847     -1.92330166353269
  C   3.19083283597236      0.99823662423765     -1.09188277873362
  H   1.33180623183007      0.85813521912998     -2.16298210846471
  C   3.80134840719454      1.11269645708085      0.15588910716720
  H   3.79375588957673      0.99433184744768     -1.99312064450801
  C   3.01643196552878      1.12741284564440      1.30729979246566
  H   4.87988344478373      1.19108489864079      0.23016388776818
  H   3.48397761166397      1.21254234205092      2.28193323820377
  H   1.02583943644495      1.02005606243175      2.11229662191599
