19
Coordinates from ORCA-job opt
  C   1.00489112125093      0.91539588695519      0.03812138754000
  C   -0.45511995559407      0.83471412975108      0.03375116596972
  C   1.65598821290513      2.02267892249666     -0.51962576351430
  C   1.77944178871205     -0.10317064147382      0.60824325270716
  C   -1.35868158539906      1.36690585040855     -0.93907418878032
  C   -1.25053700852576      0.23754949800657      0.97930786004585
  C   -2.61462903071184      1.04754438550149     -0.51646643051461
  H   -1.10623820121714      1.89025263905723     -1.84792870559806
  O   -2.56279410385543      0.36030812069950      0.65518421112609
  H   -3.59982506679597      1.21765534696740     -0.91732187894197
  H   -1.03907317443157     -0.26196372733735      1.91065259978612
  C   3.04462415695536      2.11218692822444     -0.50161801576006
  H   1.06667992549839      2.82592222716194     -0.94913953694457
  C   3.80542417529958      1.09902775750883      0.07870578474179
  H   3.53338429279720      2.97763200270183     -0.93511153906937
  C   3.16731981977870     -0.00886503745930      0.63380149062242
  H   4.88695685500984      1.16973725173442      0.09372334584611
  H   3.75237180803136     -0.80680053694119      1.07744139133527
  H   1.28731597029228     -0.98201300396347      1.01195356940273
