19
Coordinates from ORCA-job opt
  C   1.00146819965526      0.98526957677564      0.06225769015778
  C   -0.46037243616979      0.96373334117385      0.03512580042522
  C   1.69769196424689      2.16381641796052      0.36026845577760
  C   1.73359567041057     -0.17047921658670     -0.23664421898732
  C   -1.30752872023723      0.15869295587002     -0.78992675161579
  C   -1.31214792581912      1.71116958313610      0.80915260176756
  C   -2.58989818517481      0.48396451497853     -0.46166014497450
  H   -1.00310003517814     -0.54505747914736     -1.54861427787588
  O   -2.60690661139394      1.42861898366421      0.51574589597066
  H   -3.55352804678984      0.15897438833689     -0.81665676052546
  H   -1.15286672530433      2.42885472316101      1.59732757137053
  C   3.08889930254611      2.18347318898706      0.36628540266660
  H   1.14134222147985      3.07405735527776      0.55878501450831
  C   3.80806178992486      1.02942975197532      0.06001520917007
  H   3.61255202786817      3.10537129694602      0.59355486729295
  C   3.12509839043897     -0.14791660562574     -0.23914638361856
  H   4.89182966567511      1.04743982561055      0.05521509262005
  H   3.67719980851861     -1.05126447132770     -0.47347051616880
  H   1.20611064530281     -1.09344713116599     -0.45301654796101
