19
Coordinates from ORCA-job opt
  C   1.00480643151966      0.91726472468783      0.03940585983969
  C   -0.45191320061726      0.80125321458192     -0.00790695812165
  C   1.68184350166019      1.72985598344175     -0.87837807426465
  C   1.75169639882240      0.20955650275017      0.99012079514734
  C   -1.39716270267045      1.79419053803915     -0.41695880335281
  C   -1.20213893912112     -0.29915312819178      0.32277285361564
  C   -2.63070034428304      1.22712994610557     -0.29618443810971
  H   -1.18857746643208      2.80519940856032     -0.72990393524846
  O   -2.52573519003463     -0.05216390412256      0.15154724927442
  H   -3.63255022888019      1.58224818776362     -0.47055021032626
  H   -0.94598852945512     -1.29432706480313      0.64782862614064
  C   3.06991654622801      1.82631747184381     -0.85103053914194
  H   1.11554022346561      2.26978523144853     -1.62986441388337
  C   3.80449152270571      1.10791278269855      0.09046130489837
  H   3.57961257118083      2.45726203206644     -1.57065469686991
  C   3.13996023513393      0.29942085546964      1.01111242691934
  H   4.88570176520166      1.18196282798796      0.11031669287539
  H   3.70351853194637     -0.25368524303036      1.75423300652907
  H   1.23517887362951     -0.39532836729742      1.72823425407885
