19
Coordinates from ORCA-job opt
  C   1.00821133543032      0.90981500096732     -0.03616225223236
  C   -0.44822999083236      0.82624573686034     -0.13351319084799
  C   1.80706838904372      0.90343650495614     -1.18696607554503
  C   1.63053576543605      1.01967758516126      1.21354542627054
  C   -1.41776934552164      1.41025074376169      0.74160863822231
  C   -1.17570396770427      0.15748202122337     -1.08571280847713
  C   -2.64107072965581      1.06160125243241      0.25182122763625
  H   -1.22957915438594      2.03297296282888      1.60203449641855
  O   -2.50760630148644      0.29370309559692     -0.86218940283115
  H   -3.65219832385633      1.27347095336043      0.55667902754503
  H   -0.89885260977352     -0.45793818894417     -1.92612650500307
  C   3.19194414249292      0.99586427457474     -1.08939479890271
  H   1.33387156930223      0.85426830402827     -2.16222365015713
  C   3.80101163608019      1.11096591620422      0.15906273291787
  H   3.79575346032335      0.99464049414864     -1.99003385840236
  C   3.01518487536657      1.12107526680508      1.30995806350724
  H   4.87925228519083      1.19225410015060      0.23435364217893
  H   3.48185894256592      1.20574955636384      2.28503495231703
  H   1.02381702198418      1.00916441952002      2.11282533538519
