19
Coordinates from ORCA-job opt
  C   1.00187121625822      0.99093590433177      0.03991381370242
  C   -0.46008732850128      0.96613689609268      0.02439373181523
  C   1.69771854293447      2.16775283887729      0.34518362644510
  C   1.73436839757248     -0.16611925516435     -0.25255302158538
  C   -1.31318113147392      0.15880738334557     -0.79235946304197
  C   -1.30614806407511      1.71151079549161      0.80644447844261
  C   -2.59303349305456      0.48081562674278     -0.45149944970080
  H   -1.01575899749538     -0.54472938545003     -1.55405153401085
  O   -2.60290782511658      1.42522727360991      0.52613032174547
  H   -3.55914244981050      0.15319080477160     -0.79726474268482
  H   -1.14100673626730      2.42897694958448      1.59361745285422
  C   3.08880391030050      2.18310067335997      0.36995513729656
  H   1.14180478072727      3.07924812396768      0.53921759329650
  C   3.80850316077515      1.02596829536161      0.07697482797430
  H   3.61194484906179      3.10330158018597      0.60521330711887
  C   3.12584846307509     -0.14790589270593     -0.23626596051645
  H   4.89227627962500      1.03993189589221      0.08948636797324
  H   3.67784683768867     -1.05318213607041     -0.46333213042138
  H   1.20778058777597     -1.08826837222442     -0.47460335670286
