19
Coordinates from ORCA-job opt
  C   1.00905096637061      0.89470178888201     -0.03537680164089
  C   -0.44802668062050      0.81964639185330     -0.13273918841794
  C   1.80759591740171      0.89226534543395     -1.18639914043434
  C   1.63118834926642      1.00938097144262      1.21398721072670
  C   -1.41403183401419      1.40960931314741      0.74217261459668
  C   -1.17948987380141      0.15613831353619     -1.08557783515443
  C   -2.63935427947252      1.06947194608204      0.25143870415817
  H   -1.22286051871019      2.03060880406515      1.60319229355093
  O   -2.51045929076257      0.30165121676713     -0.86302670932742
  H   -3.64911331531476      1.28805502454050      0.55612531244416
  H   -0.90628552038197     -0.46028518049263     -1.92646304280113
  C   3.19162221883726      0.99682318764733     -1.08958380299811
  H   1.33425737445094      0.83948759694941     -2.16140349037552
  C   3.80005261224642      1.12126532875373      0.15830035371133
  H   3.79492985364554      1.00020263556789     -1.99055840715472
  C   3.01495787787482      1.12284306378964      1.30968553433725
  H   4.87744737924672      1.21371715368145      0.23291644360843
  H   3.48125564005841      1.21286465783169      2.28447190032177
  H   1.02476312367926      0.99625244052118      2.11343805084906
