19
Coordinates from ORCA-job opt
  C   1.00634199533726      0.96806121214954     -0.05132105388655
  C   -0.45104153581937      0.90523331446585     -0.15356665443920
  C   1.82114638160210      0.46526491303959     -1.07394206203624
  C   1.61492786110644      1.51420622674359      1.08553651327715
  C   -1.39656673098195      0.76135472536652      0.91001187484012
  C   -1.20270686640456      0.98295704399756     -1.29917243897179
  C   -2.63113663615381      0.75433977547723      0.33219793081473
  H   -1.18466938394351      0.64630124684039      1.96142573864126
  O   -2.52695986343576      0.89168021441255     -1.01611891503111
  H   -3.63204639480952      0.65563547012878      0.71777043319133
  H   -0.95089765160643      1.12897459481130     -2.33692426884839
  C   3.20733800236185      0.51521189912945     -0.96569733866535
  H   1.36076630315105      0.00786450687313     -1.94363462054988
  C   3.80297028965760      1.05531566359519      0.17283548946370
  H   3.82362622977268      0.11711386239245     -1.76413539758143
  C   3.00145944113686      1.55587827707273      1.19706439496045
  H   4.88288880787264      1.08573979386468      0.26107999832763
  H   3.45704968075355      1.98176101656854      2.08411866302194
  H   0.99501207040287      1.92180624307092      1.87707171347162
