19
Coordinates from ORCA-job opt
  C   1.00131667604232      0.98270125164130      0.07262279719201
  C   -0.46040579163454      0.96224719129571      0.04029382503650
  C   1.69748444014537      2.16224319253578      0.36689488762139
  C   1.73345175409174     -0.17231467098921     -0.22913179713363
  C   -1.30487657839624      0.15843162316350     -0.78875816368780
  C   -1.31474271815287      1.71007061970049      0.81106074190021
  C   -2.58827826648043      0.48521981776526     -0.46616655345548
  H   -0.99799560970486     -0.54534931527493     -1.54643170956132
  O   -2.60856669588620      1.42937229559081      0.51173278271874
  H   -3.55068117947544      0.16143878829448     -0.82558756329778
  H   -1.15807712350961      2.42739090804306      1.60011801767627
  C   3.08866275560568      2.18418526833717      0.36402664290516
  H   1.14088622914641      3.07189275400324      0.56743937660680
  C   3.80771449428774      1.03166058028382      0.05177668812874
  H   3.61229826159885      3.10707150318912      0.58730134251319
  C   3.12488511117091     -0.14747917602499     -0.24051812116844
  H   4.89138391299685      1.05175499792217      0.03882612559203
  H   3.67707876833463     -1.04991754394532     -0.47811397701106
  H   1.20596055981966     -1.09591908553144     -0.44278534257553
