19
Coordinates from ORCA-job opt
  C   1.00377387631925      0.93405299676049      0.05594281071172
  C   -0.45653555909687      0.86000983856299      0.05221660572692
  C   1.76385835963055      0.09644223897054      0.88243704862326
  C   1.66984596567726      1.84575347029673     -0.77237995731836
  C   -1.34337174942656      1.11686312280677     -1.04082685993860
  C   -1.26899439279408      0.53831004796138      1.11022298724867
  C   -2.60688966441360      0.92336205617340     -0.56736023197883
  H   -1.07662865952565      1.37948488644415     -2.05243985048731
  O   -2.57615062195004      0.57292194048498      0.74579812874712
  H   -3.58515940193264      0.98296198059396     -1.01422159868670
  H   -1.07324032438076      0.30408219260306      2.14389382151209
  C   3.15294413432372      0.17805366003531      0.88925503541409
  H   1.26051425394845     -0.63815599025286      1.50242245541647
  C   3.80635816738045      1.08848224928162      0.06048988859000
  H   3.72672080625236     -0.47981344293343      1.53246697534757
  C   3.05962877899524      1.92059021267150     -0.77147645367982
  H   4.88869700489655      1.14676021469696      0.06085653309564
  H   3.55989718013805      2.63335199745408     -1.41754404351947
  H   1.09223284595831      2.51118632738837     -1.40515429482445
