19
Coordinates from ORCA-job opt
  C   1.00873975095111      0.90002286421043     -0.03561542586889
  C   -0.44820241549845      0.82230432409182     -0.13295334816415
  C   1.80740921700400      0.89530163776027     -1.18655382171920
  C   1.63101256811395      1.01355184106615      1.21376952361351
  C   -1.41527429048073      1.41016977088050      0.74216119098941
  C   -1.17834580527718      0.15741652729095     -1.08584528408531
  C   -2.63994415333349      1.06716996418916      0.25185123647095
  H   -1.22477942300601      2.03164368144183      1.60299011665603
  O   -2.50956192780757      0.29962075873323     -0.86254924415831
  H   -3.65011852499883      1.28351110245865      0.55676432278023
  H   -0.90423986114155     -0.45848482124147     -1.92680811862225
  C   3.19175374482944      0.99523232521737     -1.08955469592669
  H   1.33401562308150      0.84345751706689     -2.16158771552257
  C   3.80047952082242      1.11692588216294      0.15844260607527
  H   3.79519358874128      0.99627375633618     -1.99045351736023
  C   3.01512194487363      1.12241609084218      1.30962230778173
  H   4.87822241312313      1.20517141213533      0.23320627544680
  H   3.48149583074128      1.21099986680222      2.28451178098341
  H   1.02452419926209      1.00199649855537      2.11320081063026
