19
Coordinates from ORCA-job opt
  C   1.00152108977348      0.98651073805409      0.05768620828276
  C   -0.46019017444913      0.96376011501092      0.03394591158273
  C   1.69729898969196      2.16532590677249      0.35576517757404
  C   1.73393409745564     -0.16952581299043     -0.23942832526511
  C   -1.30864768790644      0.15826919809423     -0.78959100295546
  C   -1.31091630985362      1.70974297124964      0.81042577454219
  C   -2.59051538006290      0.48208958161726     -0.45812575433869
  H   -1.00493887688434     -0.54470284191636     -1.54927657479697
  O   -2.60621302085551      1.42611666248586      0.52017172821412
  H   -3.55478277579947      0.15641370513211     -0.81072974370591
  H   -1.15019398638146      2.42691810648806      1.59878606699498
  C   3.08851801128389      2.18467022266001      0.36469251974967
  H   1.14067294756515      3.07567832252512      0.55296028723095
  C   3.80801463381350      1.02998506145293      0.06156792168506
  H   3.61204750558683      3.10650214018776      0.59246557304010
  C   3.12545643706366     -0.14726735760649     -0.23906073965489
  H   4.89178845564491      1.04757527644663      0.05953606925527
  H   3.67806835808481     -1.05077908932595     -0.47147381668400
  H   1.20657668622906     -1.09258390633788     -0.45571628075084
