19
Coordinates from ORCA-job opt
  C   1.00650768842771      0.93841098176374     -0.04410609826011
  C   -0.45131446570856      0.86442900726210     -0.14896668650943
  C   1.82662552848063      0.67819635042685     -1.15097920657291
  C   1.61950488890832      1.27251493915223      1.16999861531560
  C   -1.41631092591570      1.09998426961818      0.88269625251302
  C   -1.19143129070505      0.55243338189418     -1.26389052886802
  C   -2.64301401315605      0.91556948234490      0.32018626650176
  H   -1.23394235433274      1.37113786946070      1.90994033497560
  O   -2.52039677691153      0.58034705642733     -0.99093307148473
  H   -3.65017906976020      0.98073889929487      0.69639766856763
  H   -0.93471896471933      0.29831290294097     -2.27874934567515
  C   3.21108516273165      0.74987386480410     -1.04652324481292
  H   1.38016817715106      0.41694275241609     -2.10420820858664
  C   3.80865069971229      1.08363279995000      0.16794660001444
  H   3.82542415432648      0.54448916918968     -1.91611350887319
  C   3.00551377881338      1.34447389253562      1.27534944798548
  H   4.88801835346935      1.13951186878723      0.24934003903832
  H   3.45811068028353      1.60511497874743      2.22559463395718
  H   1.00919774890476      1.47858353298380      2.04162004077408
