19
Coordinates from ORCA-job opt
  C   1.00617172993969      0.90004459251125      0.02530229119475
  C   -0.45170329717915      0.79343952213351     -0.01307774018754
  C   1.68228117589972      1.71707267619513     -0.88914237709990
  C   1.75344975958605      0.19778026489440      0.97960563205435
  C   -1.39175367383595      1.79327157305099     -0.41714709687686
  C   -1.20835600600514     -0.30063886680967      0.32378897351895
  C   -2.62898011132723      1.23641609181162     -0.28640237929662
  H   -1.17869589907098      2.80253789143611     -0.73270379609810
  O   -2.53107634529378     -0.04312544492493      0.16187428440119
  H   -3.62909001787226      1.59987019493382     -0.45354794277471
  H   -0.95819705792493     -1.29745856329876      0.64851530264105
  C   3.06909969286264      1.82730726399815     -0.85168415618656
  H   1.11689831181043      2.25367254710495     -1.64370200296921
  C   3.80373881743401      1.11967611158074      0.09788031268557
  H   3.57716124921154      2.46362014821406     -1.56775967318057
  C   3.14061612447113      0.30151664979658      1.01092045453340
  H   4.88378345743222      1.20649699969551      0.12752707559894
  H   3.70365647042747     -0.24582275968738      1.75871340241538
  H   1.23849561943451     -0.41097689263608      1.71563843562649
