19
Coordinates from ORCA-job opt
  C   1.00152956748340      0.98883710296978      0.04928724852341
  C   -0.46036185055447      0.96556007453384      0.02912530116352
  C   1.69790719418395      2.16581702883297      0.35291570852638
  C   1.73381370971614     -0.16740222402219     -0.24730668075826
  C   -1.31051298454400      0.15732684490299     -0.78946500724760
  C   -1.30916856815861      1.71329349376559      0.80615783148027
  C   -2.59168600270445      0.48107634677108     -0.45537005013572
  H   -1.00896363481446     -0.54734665147352     -1.54850558971881
  O   -2.60492657978118      1.42748145259004      0.52036588611029
  H   -3.55665848308469      0.15371305803568     -0.80447967095639
  H   -1.14731060969497      2.43279305456625      1.59213394988001
  C   3.08903146428439      2.18273275447474      0.36954228697138
  H   1.14244751779702      3.07691992499564      0.55015928980603
  C   3.80834923610623      1.02716723960572      0.06957781675327
  H   3.61267646113481      3.10317637148699      0.60279222140010
  C   3.12529307216118     -0.14763688244216     -0.23903228330908
  H   4.89217979177232      1.04266292457352      0.07478134697801
  H   3.67725103760915     -1.05185647870829     -0.47044326859256
  H   1.20660866108823     -1.08961543545868     -0.46763433687426
