19
Coordinates from ORCA-job opt
  C   1.00818812476796      0.91131372935449     -0.03619994902283
  C   -0.44821063559751      0.82604394588312     -0.13308410319387
  C   1.80671190155269      0.90436766315733     -1.18728928185102
  C   1.63090319887315      1.02200561937823      1.21321093832557
  C   -1.41836875014542      1.40887304649839      0.74225375183332
  C   -1.17502745900443      0.15631095827931     -1.08504861790422
  C   -2.64132835967735      1.05840168980096      0.25307521797985
  H   -1.23132911008617      2.03209384968580      1.60265094088920
  O   -2.50713678468736      0.29097071740080     -0.86127777617158
  H   -3.65267214741181      1.26871081461445      0.55842393698324
  H   -0.89769512017940     -0.45900894746629     -1.92542653393866
  C   3.19164030063276      0.99657538466289     -1.09016769243597
  H   1.33337175199734      0.85478228136064     -2.16248144340896
  C   3.80110620531894      1.11195779312327      0.15804400125170
  H   3.79518169245262      0.99475997078327     -1.99103557056092
  C   3.01559502537929      1.12317279136628      1.30911725981036
  H   4.87944511448406      1.19290272206262      0.23299322156537
  H   3.48256459665612      1.20833696853265      2.28405697467397
  H   1.02456045467452      1.01212800152177      2.11278772517544
