20
Coordinates from ORCA-job opt
  C   0.99932582800988      0.92161187821899     -0.01630168463652
  C   -0.45362514105965      0.85276258424983     -0.04619277999912
  C   1.74819807739818      0.46990966767674     -1.11218066490362
  C   1.68348354957576      1.43211439239118      1.09658677646518
  N   -1.24236520595278      1.73470320461340      0.65024531264489
  C   -1.31449897622338     -0.03172311645209     -0.68845890902698
  C   -2.56565477452218      1.45050946531617      0.45848993385735
  H   -0.89010220425701      2.54346099009728      1.13850527929145
  C   -2.63781043585021      0.34348043429792     -0.36890693169823
  H   -3.33820601461408      2.05200548305178      0.90999053735164
  H   -3.54658449302961     -0.13999809301199     -0.69146152097974
  H   -1.00497310150405     -0.87682978106724     -1.28426806713483
  C   3.13750310520749      0.52351427757067     -1.09239651828925
  H   1.22912048621573      0.09366209826965     -1.98714071814311
  C   3.80738734718057      1.04456054165532      0.01409540905101
  H   3.69957456912721      0.17003567012448     -1.94975671090873
  C   3.07356915991770      1.50040109887589      1.10718918314771
  H   4.89010257592595      1.09271074462631      0.02476389525665
  H   3.58455375714470      1.89627297839024      1.97790586917138
  H   1.12780289130978      1.74443548110545      1.97539030948287
