20
Coordinates from ORCA-job opt
  C   0.99968022974405      0.90492602201112     -0.00639820511114
  C   -0.45315151952095      0.82866156261171      0.00446197528042
  C   1.76147942870691     -0.07644238142975      0.64376577838625
  C   1.67042759459648      1.96116068447645     -0.64005838055900
  N   -1.24419795066730      1.94889477863710     -0.06036621225418
  C   -1.31201201656479     -0.26482795280873      0.05327056199267
  C   -2.56685431850450      1.60462882890700     -0.03741596877112
  H   -0.89145699993597      2.89245680837260     -0.01796793859710
  C   -2.63668462289529      0.22384841472663      0.02501065186727
  H   -3.34116403329466      2.35468771164073     -0.05674541734496
  H   -3.54506611890295     -0.35783762505985      0.03666074805917
  H   -1.00129807309134     -1.29843638845514      0.06513021584866
  C   3.15018492744613     -0.00692384469784      0.65153188031683
  H   1.25402723388988     -0.89962045695675      1.13514977681902
  C   3.80644643322620      1.05606499471636      0.03166086988122
  H   3.72254036327795     -0.77706793647164      1.15672075755865
  C   3.05992704888163      2.03873103688717     -0.61493794959509
  H   4.88862331135846      1.11408818267412      0.04703076069033
  H   3.56057956174209      2.86165460427059     -1.11305400768547
  H   1.10476952050797      2.70895395594813     -1.18734989678241
