20
Coordinates from ORCA-job opt
  C   0.99898589863236      0.94073286323901     -0.02391226217334
  C   -0.45538455550623      0.91644283852368     -0.06515610682861
  C   1.69234050801326      1.25371911597992      1.15450456414879
  C   1.73904448009123      0.68493903042251     -1.18698096556776
  N   -1.21534438835228      0.60114085754528      1.03406561118926
  C   -1.34466580610416      1.19909486558693     -1.09722012303536
  C   -2.54678067799524      0.65848946406859      0.73037070744286
  H   -0.83551477844847      0.26706923076932      1.90620197093588
  C   -2.65487234397507      1.03923872224908     -0.59571749895021
  H   -3.29944924557152      0.42004714902918      1.46464918123622
  H   -3.57908256272935      1.19375351606962     -1.13022006053356
  H   -1.06304389206471      1.52592838833483     -2.08664289569545
  C   3.08333658664105      1.29064516367119      1.17286976299945
  H   1.14105920132733      1.47154919003698      2.06405053521612
  C   3.80777049158391      1.04204609311219      0.00896975218346
  H   3.60191819191016      1.53135255632429      2.09436916910346
  C   3.12821867151256      0.74103097982318     -1.17076998998677
  H   4.89094985232851      1.07880112254590      0.02169485537638
  H   3.68362445874465      0.53871672257341     -2.07994257271392
  H   1.21368990996199      0.42286313009490     -2.09908263434690
