20
Coordinates from ORCA-job opt
  C   0.99921379088702      0.92150757759999      0.01950071795650
  C   -0.45430801829358      0.87561348775588      0.06400317681960
  C   1.67782708070044      1.84836084707749     -0.78530198978587
  C   1.75400133391199      0.05879253107377      0.82703884815378
  N   -1.23305058372124      1.23323190248607     -1.00873425421727
  C   -1.32538996748841      0.52529707783478      1.09085125216389
  C   -2.55933687406935      1.10708744115422     -0.70278051970393
  H   -0.86978475835371      1.45108512687339     -1.92360715433956
  C   -2.64446525584630      0.67340641921574      0.60871484118076
  H   -3.32492917324788      1.32386772049936     -1.43035048413426
  H   -3.55922753529212      0.49833669033878      1.15293153488598
  H   -1.02658259502750      0.23861496452789      2.08757735766908
  C   3.06874058371192      1.89624787561160     -0.79715525120212
  H   1.11646607985509      2.53228124648569     -1.41431082300731
  C   3.80790649798758      1.04012088008077      0.01645340818226
  H   3.57547247262967      2.61682157876428     -1.42955800339440
  C   3.14308765975890      0.12215685410888      0.82878820556849
  H   4.89083807630666      1.08403571503721      0.01386440090541
  H   3.70967573327818     -0.55446240378965      1.45892528676292
  H   1.24064545231263     -0.67480153273616      1.43924844953605
