20
Coordinates from ORCA-job opt
  C   0.99750578803360      0.98262157098581      0.04597897530065
  C   -0.45726480351050      0.97494695183528      0.05497821606817
  C   1.69616876047707      2.19488549397615      0.13868556620424
  C   1.73289223590100     -0.20527346438695     -0.07885345718464
  N   -1.18732214511939      0.00553100929522     -0.58681067687831
  C   -1.37374336797071      1.82799088939298      0.66258044529277
  C   -2.52642900234174      0.22429042392832     -0.42251431152212
  H   -0.78567411737532     -0.69849489564778     -1.18652858106852
  C   -2.66986686926040      1.35471358184779      0.36326969992116
  H   -3.25972478046803     -0.42176115637314     -0.87789122821713
  H   -3.60769351874521      1.77654340796867      0.68921663305846
  H   -1.11796200678856      2.67154488725909      1.28552585625338
  C   3.08623822266737      2.21592310761308      0.11581934598919
  H   1.13805526092066      3.11950295941720      0.23948974284689
  C   3.80713135121861      1.03047588730541     -0.02467945270704
  H   3.60937947521326      3.16269053279373      0.19268918391558
  C   3.12387629568253     -0.17987501111210     -0.12033237904930
  H   4.89045812623656      1.04958938260844     -0.05262670385623
  H   3.67522739066608     -1.10891150588334     -0.21467630151030
  H   1.21554970456311     -1.15933405282391     -0.10721957285689
