20
Coordinates from ORCA-job opt
  C   0.99921370317951      0.92193340098852      0.01945804164371
  C   -0.45432232030051      0.87503959264941      0.06347579758740
  C   1.67775297699473      1.84902563435243     -0.78509077400416
  C   1.75416247307865      0.05966282286322      0.82734909968342
  N   -1.23313567195559      1.23304639589730     -1.00913641855190
  C   -1.32535382936661      0.52336264909680      1.08984567138225
  C   -2.55936294537839      1.10572556227754     -0.70346498150646
  H   -0.86983817435106      1.45206151175633     -1.92371231312920
  C   -2.64445208079471      0.67083173877493      0.60759638482666
  H   -3.32497323405779      1.32232579717584     -1.43108267777270
  H   -3.55921102125051      0.49471092510052      1.15148118627548
  H   -1.02650462432431      0.23603544973169      2.08637372889347
  C   3.06861717049403      1.89763033723495     -0.79630816569042
  H   1.11634495423300      2.53257612197164     -1.41447556774901
  C   3.80790139139637      1.04193030508995      0.01764140517288
  H   3.57529016017735      2.61839217404185     -1.42854954977176
  C   3.14319139669294      0.12365681762349      0.82971414547874
  H   4.89081405840717      1.08638686005171      0.01549936401102
  H   3.70986223407941     -0.55261770349613      1.46014908863889
  H   1.24080538304630     -0.67411539318200      1.43933753458172
