20
Coordinates from ORCA-job opt
  C   0.99984354599862      0.90516654454375     -0.00959120939397
  C   -0.45325035254841      0.84138895705091     -0.04038019383023
  C   1.74771577627187      0.46523134996560     -1.11115131160971
  C   1.68461307601304      1.42425828802540      1.09902536907712
  N   -1.23870493689191      1.72566999554967      0.65646433887452
  C   -1.31842508397847     -0.03713998489815     -0.68584546926471
  C   -2.56307277226039      1.44967054369773      0.46224469213672
  H   -0.88227097216619      2.52855343063468      1.15138555919645
  C   -2.63980655192213      0.34469051181473     -0.36794772048644
  H   -3.33326305304451      2.05426838288122      0.91358702211720
  H   -3.55049560262132     -0.13267959673334     -0.69425846558237
  H   -1.01323751242842     -0.88210552389274     -1.28415582272210
  C   3.13633487197540      0.53508206101632     -1.09927279249781
  H   1.22943123255318      0.05805167309388     -1.97264165331734
  C   3.80617495500653      1.06767031139661      0.00175313540407
  H   3.69786407680022      0.18657380953359     -1.95903326642328
  C   3.07372549113070      1.51041270568606      1.10105340205771
  H   4.88819442338685      1.13068930549012      0.00530154603532
  H   3.58539714897778      1.91222956882581      1.96865431037257
  H   1.13003223974749      1.72991666631808      1.98090752985628
