20
Coordinates from ORCA-job opt
  C   0.99955005137991      0.90909567381962     -0.01086051739183
  C   -0.45357141479314      0.84514800877251     -0.04217145172239
  C   1.74775387000470      0.46520455694779     -1.11056504205170
  C   1.68408800220358      1.42653162353799      1.09850859237561
  N   -1.23959433157831      1.72963960089403      0.65414660705644
  C   -1.31706579670066     -0.03502376914966     -0.68667831264028
  C   -2.56363308976965      1.45114013932688      0.45993792734599
  H   -0.88391521282491      2.53412232195420      1.14690731538625
  C   -2.63938261150060      0.34574241235700     -0.36927319065200
  H   -3.33483789828507      2.05576138141273      0.90962843305166
  H   -3.54990723787350     -0.13294426275327     -0.69403435270126
  H   -1.01022296366246     -0.88031112694756     -1.28365140196018
  C   3.13659807130326      0.52994308581764     -1.09643152728935
  H   1.22913358366171      0.06509415900423     -1.97515760420097
  C   3.80651924487572      1.06001627738234      0.00586763952455
  H   3.69838003825122      0.17931983766865     -1.95515721529638
  C   3.07357596620993      1.50726445557167      1.10303333382508
  H   4.88877147103281      1.11853733964277      0.01158316799432
  H   3.58512417283558      1.90801227591930      1.97120245161059
  H   1.12943608522989      1.73530500882111      1.97926714773583
