20
Coordinates from ORCA-job opt
  C   0.99703442717035      0.99667888048626     -0.00545291780402
  C   -0.45781703409090      0.98976293010187      0.00351600462735
  C   1.69968598855035      2.05602020799786      0.58633123146005
  C   1.72902324549762     -0.05013538170641     -0.58468242618086
  N   -1.18363909380462     -0.17570706988784     -0.00252777637649
  C   -1.37803720873755      2.03329632514999     -0.00348931197295
  C   -2.52376612003439      0.09310770885728      0.00406182183627
  H   -0.77744495351125     -1.09406796978688      0.08771384277656
  C   -2.67245232235610      1.46900817462974     -0.00505388987796
  H   -3.25384097234492     -0.70004074684644      0.02491685031696
  H   -3.61255571395034      1.99773898186919     -0.02268682749778
  H   -1.12683925063206      3.08220007523254     -0.04531808969288
  C   3.08998654854735      2.07030959024068      0.59121837007808
  H   1.14407158396047      2.86904461675077      1.04115054506999
  C   3.80785338422653      1.01711111359669      0.02538695371178
  H   3.61599701887986      2.89939200246522      1.05152149843674
  C   3.12060161288992     -0.04259065318032     -0.56263359182518
  H   4.89159387755622      1.02514096692428      0.03817197556074
  H   3.66911021072229     -0.85980376768586     -1.01792741492858
  H   1.20823577146114     -0.85886498520864     -1.08811684771781
