20
Coordinates from ORCA-job opt
  C   0.99729079953456      0.99051354196026      0.00600953889500
  C   -0.45758141183021      0.98640003606076      0.00992243319843
  C   1.69983987375366      2.05307838649967      0.59182588214543
  C   1.72895766388282     -0.05284343695125     -0.57988722175692
  N   -1.18600622566109     -0.17734209013855      0.00275565892703
  C   -1.37533498694234      2.03211202850947     -0.00268360276402
  C   -2.52569039081186      0.09444502028693      0.00284640180612
  H   -0.78308675248981     -1.09651086069397      0.09951551031708
  C   -2.67101490519281      1.47069082835789     -0.00926680895571
  H   -3.25720994177269     -0.69743091450387      0.02011083070985
  H   -3.60963829350322      2.00184722472217     -0.03217999159795
  H   -1.12149669354691      3.08029731548094     -0.04601932354386
  C   3.09017691266742      2.07234449162104      0.58716211005454
  H   1.14469644472465      2.85411383765001      1.06797699652753
  C   3.80800805074690      1.02377513238740      0.01290035064844
  H   3.61603417138518      2.90239973230591      1.04588135455457
  C   3.12064737283122     -0.03960009727952     -0.56839541480759
  H   4.89176315853311      1.03663499145718      0.01686105186051
  H   3.66865251306559     -0.85441413021413     -1.02854619319902
  H   1.20779264062581     -0.86291103751834     -1.08068956301944
