20
Coordinates from ORCA-job opt
  C   0.99935886040318      0.92295805704837     -0.01702825986673
  C   -0.45357609688361      0.85321741813444     -0.04643445564900
  C   1.74809329444185      0.47108169794917     -1.11292722509803
  C   1.68342348850241      1.43233248787919      1.09648505533649
  N   -1.24248671829883      1.73507988710229      0.65007173480353
  C   -1.31418148024630     -0.03247615158660     -0.68733105155638
  C   -2.56569356450305      1.45038929337022      0.45847950146783
  H   -0.89000741116344      2.54591083542896      1.13476574428369
  C   -2.63758182916365      0.34243105710364     -0.36768856044831
  H   -3.33857486627912      2.05167166103398      0.90972004448984
  H   -3.54626766764483     -0.14209266239155     -0.68894793630122
  H   -1.00408967409796     -0.87813745499984     -1.28208893336139
  C   3.13743184277222      0.52380164863142     -1.09273311463071
  H   1.22859728207821      0.09784574960261     -1.98894005332096
  C   3.80723600673820      1.04355486980776      0.01440695011092
  H   3.69971965963776      0.17061422426772     -1.95007772650738
  C   3.07351763559351      1.49965451264758      1.10748544221182
  H   4.88999464312056      1.09088608845095      0.02545992020506
  H   3.58483419499695      1.89463704429889      1.97842000571456
  H   1.12705239999594      1.74424173622080      1.97500191811637
