20
Coordinates from ORCA-job opt
  C   0.99789905304407      0.96857221634788     -0.02266108067785
  C   -0.45503310150580      0.90304838260799     -0.06321529565653
  C   1.70726188728783      0.75831352776403      1.16885677094309
  C   1.72322014949189      1.19984903959676     -1.20017300940848
  N   -1.23518573204382      1.23158544929881      1.01783083239633
  C   -1.32268587357183      0.51200159413318     -1.07799788835861
  C   -2.55998132790726      1.07722135656986      0.71845720020222
  H   -0.87884701920097      1.63231960192296      1.87153915961040
  C   -2.64172873147559      0.61988484955875     -0.58507655697439
  H   -3.32760410563118      1.30853541057946      1.43941511850756
  H   -3.55362909226151      0.38102624784390     -1.10949044376600
  H   -1.01944531532734      0.14915424739483     -2.04822431798983
  C   3.09832348478188      0.79893094230244      1.18528803763477
  H   1.16947291648887      0.57037156833651      2.09300465732120
  C   3.80846421170689      1.02060727204787      0.00722584724754
  H   3.62892509535084      0.63859699836264      2.11733730085001
  C   3.11348709315321      1.22000508431372     -1.18515388097216
  H   4.89200651196372      1.04303055492232      0.01881567204343
  H   3.65695214979766      1.40207077636776     -2.10570945929486
  H   1.18492474585843      1.38247487972834     -2.12396866365783
