20
Coordinates from ORCA-job opt
  C   0.99696524499411      0.99718532642210     -0.00577536206296
  C   -0.45780166370861      0.99011668916292      0.00302379913554
  C   1.69965016192425      2.05606939321362      0.58688968025788
  C   1.72887699194787     -0.04975633599154     -0.58486389345302
  N   -1.18334288535270     -0.17544023045117     -0.00288027391353
  C   -1.37818028648366      2.03361854771311     -0.00473701994123
  C   -2.52358130823935      0.09308353761740      0.00348561180693
  H   -0.77720257655903     -1.09370306874791      0.08863157969977
  C   -2.67253946170364      1.46902359340398     -0.00609736058924
  H   -3.25347154164652     -0.70022454398482      0.02390531342089
  H   -3.61267593384780      1.99764600158424     -0.02414743438208
  H   -1.12735991175767      3.08255589122901     -0.04734360299512
  C   3.09001624326749      2.06982513719104      0.59249530366416
  H   1.14433051250852      2.86997578694318      1.04044207678148
  C   3.80785375194709      1.01632952289092      0.02704489885734
  H   3.61599999399633      2.89858530575054      1.05337436742537
  C   3.12053385593524     -0.04285570492893     -0.56180884931019
  H   4.89156970241095      1.02388033951036      0.04051636456553
  H   3.66888813296286     -0.86013031514724     -1.01713994458423
  H   1.20827297740426     -0.85818487338081     -1.08891425438328
