20
Coordinates from ORCA-job opt
  C   0.99890190662412      0.93629887879808      0.03820476899370
  C   -0.45454757988449      0.88037561115004      0.07276485588000
  C   1.67518321010065      1.85592969613048     -0.77678501361484
  C   1.75568963978356      0.06903472281087      0.83878742259247
  N   -1.22634650460607      1.23240032669263     -1.00686319757883
  C   -1.33207869592802      0.52521648105802      1.09236987508073
  C   -2.55433101976362      1.09599264364482     -0.71272392526841
  H   -0.85564186632136      1.44604697909006     -1.91983688343869
  C   -2.64783575182173      0.66352319595499      0.59856427927571
  H   -3.31478155284702      1.30576966803697     -1.44771560013598
  H   -3.56606056845647      0.48225197872646      1.13492179383328
  H   -1.03965581592766      0.24143451502703      2.09186051380474
  C   3.06614364613468      1.89642755933026     -0.80076468843562
  H   1.11026930946221      2.56445354572239     -1.37466805703779
  C   3.80766882458621      1.03306041880318      0.00294414015103
  H   3.57125985293430      2.61511388362164     -1.43662891286430
  C   3.14507498615257      0.12321587659101      0.82614825735049
  H   4.89082838480336      1.06894190281839     -0.01131781127197
  H   3.71367678636231     -0.55631464291400      1.45134612063460
  H   1.24338380861249     -0.66157224109331      1.45549106204969
