20
Coordinates from ORCA-job opt
  C   0.99961664726413      0.90877764446800     -0.00143274750886
  C   -0.45316123157340      0.83111286875282      0.00918002884591
  C   1.76203143372528     -0.07582598247889      0.64305679866590
  C   1.67011817556628      1.96378870093618     -0.63748887899850
  N   -1.24583379923616      1.95023249034875     -0.05706728072722
  C   -1.31087966109845     -0.26337696503684      0.05775515146804
  C   -2.56800828972069      1.60434962769292     -0.03478621740155
  H   -0.89423461251384      2.89420754927079     -0.01425200632727
  C   -2.63601346433341      0.22348471618112      0.02820584178412
  H   -3.34315521682796      2.35352174206051     -0.05490691748948
  H   -3.54355601628906     -0.35953459685871      0.03925097122841
  H   -0.99878309083060     -1.29656843161387      0.07031932802679
  C   3.15086061791233     -0.00983282424570      0.64453591845106
  H   1.25401545159345     -0.89262440374912      1.14439116256988
  C   3.80693166775045      1.05124638979437      0.02133667946843
  H   3.72368281804641     -0.78166598580443      1.14662479253026
  C   3.05982992647947      2.03736431913974     -0.61935215855459
  H   4.88934344084670      1.10609853677590      0.03108023381721
  H   3.56038789651551      2.85948283288101     -1.11890314900082
  H   1.10360530672356      2.71336277148544     -1.18144555084772
