20
Coordinates from ORCA-job opt
  C   0.99890746054853      0.93581897668922     -0.02193161798635
  C   -0.45535113437891      0.91448987379394     -0.06384144507851
  C   1.69304152171326      1.25050366350348      1.15549645175074
  C   1.73840928329066      0.68245991463677     -1.18598764397960
  N   -1.21701485262432      0.60200685854587      1.03503647303078
  C   -1.34273472580868      1.19746833771724     -1.09735578364724
  C   -2.54801409746248      0.66239057967376      0.72976044419009
  H   -0.83933391064937      0.27010473028484      1.90888172317933
  C   -2.65399014057314      1.04108063624358     -0.59706743074244
  H   -3.30204516413164      0.42707920734503      1.46364549520255
  H   -3.57734897747704      1.19715582913350     -1.13249864525143
  H   -1.05949676822704      1.52258752430131     -2.08682374506491
  C   3.08405580821778      1.29025992096223      1.17229592094245
  H   1.14350691678840      1.45909238881544      2.06823882480393
  C   3.80781808036553      1.04531937424498      0.00719336651398
  H   3.60301359256667      1.53113382940913      2.09350587745822
  C   3.12749033273732      0.74227524982167     -1.17167425174255
  H   4.89086552717988      1.08515411525100      0.01859212113591
  H   3.68212637612777      0.54168011692383     -2.08166008745610
  H   1.21289487179682      0.41953787270314     -2.09770604725884
