20
Coordinates from ORCA-job opt
  C   0.99972434255590      0.90498166417904     -0.00612520059617
  C   -0.45310839751584      0.82854498305060      0.00463711439903
  C   1.76162818032019     -0.07617214981902      0.64419732993878
  C   1.67037795760106      1.96094930453994     -0.64043246297042
  N   -1.24419893408469      1.94874033249708     -0.06004996016639
  C   -1.31213972345504     -0.26494454993755      0.05316440369197
  C   -2.56688289437695      1.60464732258805     -0.03741711988031
  H   -0.89153085336483      2.89230750694029     -0.01688353327465
  C   -2.63671520293732      0.22377793276730      0.02493384138020
  H   -3.34115111041417      2.35473947365190     -0.05694788896393
  H   -3.54510962792503     -0.35790671479597      0.03655131348872
  H   -1.00160634795625     -1.29861686028958      0.06484951156820
  C   3.15034360284068     -0.00656142140451      0.65177805919068
  H   1.25432664007104     -0.89889512767555      1.13650163819075
  C   3.80648757904625      1.05613724866645      0.03133777705373
  H   3.72275626099459     -0.77650646217813      1.15721595450710
  C   3.05988040069496      2.03855458331308     -0.61554865088646
  H   4.88867250182670      1.11419210761386      0.04659671853162
  H   3.56042352434869      2.86127179843587     -1.11412070511420
  H   1.10462210173004      2.70835902785686     -1.18813814008825
