20
Coordinates from ORCA-job opt
  C   0.99615231599728      0.97563865147585      0.01343617785451
  C   -0.45916735470989      0.97226070514144      0.02381994641060
  C   1.69633367565297      2.13933282730608      0.36724500526827
  C   1.74376894501548     -0.15702289263683     -0.34227866951550
  N   -1.20334430323024     -0.13223622082379     -0.31061809639896
  C   -1.37166671929392      1.97741947410735      0.34085287756686
  C   -2.53912866226944      0.13593061326432     -0.21742263426137
  H   -0.82031522462769     -1.02127947891035     -0.58747954617788
  C   -2.67137375605488      1.45218320698129      0.18889761908537
  H   -3.27765972402420     -0.61644199453856     -0.44341137886040
  H   -3.60381941796044      1.96838491621086      0.35507508639109
  H   -1.12050596630893      2.98055227895726      0.64801121463944
  C   3.08542285685471      2.16790182985530      0.36505979117194
  H   1.14417469696907      3.02921735756613      0.64664439264654
  C   3.81553040878303      1.03463839511116      0.00928990330075
  H   3.60078523134794      3.08070358688160      0.64288061697822
  C   3.13503378221868     -0.12761456129167     -0.34420601548621
  H   4.89904006914020      1.05735512139016      0.00772595673930
  H   3.68756124758570     -1.01793672341598     -0.62353453540592
  H   1.24997889891458     -1.08138809263162     -0.62388671194665
