20
Coordinates from ORCA-job opt
  C   0.99870729874409      0.94528184338025     -0.02893134412010
  C   -0.45481692822018      0.89420900345227     -0.06766686373371
  C   1.70485376588512      0.74645089228207      1.16652140502225
  C   1.72593801566432      1.18469116576139     -1.20350434694009
  N   -1.22809405368120      1.23169004235212      1.01554444730533
  C   -1.32978871727843      0.51123681001403     -1.07936928651890
  C   -2.55550498902712      1.09311138051926      0.71981976842561
  H   -0.86433679578799      1.63612587500116      1.86448775703625
  C   -2.64598366020246      0.63438824440631     -0.58272674560253
  H   -3.31811818219793      1.33450623864875      1.44276896319628
  H   -3.56192708623034      0.40519893870105     -1.10444766976744
  H   -1.03330038112737      0.14379362110021     -2.04998811292221
  C   3.09540175406084      0.80010616420662      1.18844460252602
  H   1.16507786025709      0.51949835467848      2.08070560191660
  C   3.80764683315612      1.03374263206528      0.01399434153998
  H   3.62389955430054      0.64289724807032      2.12222808294297
  C   3.11581202148662      1.22052437644773     -1.18224465550254
  H   4.89078695051606      1.06939745801932      0.03020243132456
  H   3.66124489981302      1.40812852539723     -2.10053161101589
  H   1.18930083986919      1.36262018549615     -2.12920876511247
