20
Coordinates from ORCA-job opt
  C   0.99697886653546      0.99739740539052     -0.00643091783667
  C   -0.45784466706059      0.99028648505660      0.00199718516059
  C   1.69939295916369      2.05598151674726      0.58704563382789
  C   1.72910451385533     -0.04969406745405     -0.58489538736217
  N   -1.18340983774766     -0.17528114701328     -0.00295173217036
  C   -1.37804190950639      2.03378045767556     -0.00627478873822
  C   -2.52360220501911      0.09343392173546      0.00285471005985
  H   -0.77716329470696     -1.09355833262927      0.08784437179002
  C   -2.67248867978805      1.46928379205153     -0.00730797306925
  H   -3.25364748105620     -0.69974536359759      0.02397789924230
  H   -3.61267152970048      1.99785857326566     -0.02550207985923
  H   -1.12693856610506      3.08266049842366     -0.04915343366988
  C   3.08973541999648      2.06943799684994      0.59381906787645
  H   1.14382918687524      2.87037462185216      1.03947122365729
  C   3.80777165577842      1.01582874061440      0.02887134135432
  H   3.61559007482959      2.89805117951601      1.05514627950128
  C   3.12071834580791     -0.04307116445308     -0.56078879795870
  H   4.89150018285318      1.02311848159200      0.04326633804466
  H   3.66932736508007     -0.86045832986045     -1.01565633010995
  H   1.20866159991512     -0.85808726576304     -1.08923260974023
