20
Coordinates from ORCA-job opt
  C   0.99739242790343      0.99110229782951      0.00524853134971
  C   -0.45756793106170      0.98680312460456      0.00918691126883
  C   1.69996874910164      2.05339791130922      0.59151922142088
  C   1.72901815445119     -0.05256899767006     -0.58026179966219
  N   -1.18581691341552     -0.17710200682534      0.00145427089566
  C   -1.37581295803781      2.03215819036170     -0.00356660488514
  C   -2.52551723865650      0.09413756910511      0.00275612099368
  H   -0.78208814660568     -1.09558612413327      0.10170403958201
  C   -2.67116963908866      1.47038670100165     -0.00911777642004
  H   -3.25693766606232     -0.69783751507016      0.02052064046607
  H   -3.61004249680857      2.00118234816101     -0.03210290098110
  H   -1.12207849474758      3.08040811852659     -0.04756174603938
  C   3.09023271664661      2.07206662226345      0.58771802692403
  H   1.14449414178328      2.85523547123493      1.06602637080288
  C   3.80795266527931      1.02317204056153      0.01400999497872
  H   3.61634492291611      2.90198511195972      1.04647067945397
  C   3.12061364538273     -0.03984189546274     -0.56798594338688
  H   4.89174172321378      1.03558140618708      0.01874496326081
  H   3.66889207249782     -0.85483441676842     -1.02757982768068
  H   1.20718026530843     -0.86224795717610     -1.08108317234185
