20
Coordinates from ORCA-job opt
  C   0.99860714649225      0.95358252692020     -0.02684542312836
  C   -0.45477822173017      0.89780119519915     -0.06626305931762
  C   1.70567825720988      0.74999828020648      1.16729144708329
  C   1.72550678566778      1.18981283403253     -1.20232844649862
  N   -1.23049428055852      1.23091144586583      1.01654952135573
  C   -1.32782745214304      0.51285436192811     -1.07903847718435
  C   -2.55713973519022      1.08820411679100      0.71981458338775
  H   -0.86945130982623      1.63815914201429      1.86533979019408
  C   -2.64473558480848      0.63102691148347     -0.58353687583074
  H   -3.32132492899144      1.32491815040143      1.44265296439307
  H   -3.55905955092953      0.39890262247452     -1.10687398875946
  H   -1.03022616193192      0.14696621307470     -2.04995709024250
  C   3.09640448350135      0.79818641833651      1.18744839451089
  H   1.16597222900802      0.53752605275265      2.08501059693051
  C   3.80818205004304      1.02743698889938      0.01188415815624
  H   3.62549462559420      0.63955445050989      2.12069564173046
  C   3.11547529198613      1.21949016017509     -1.18295453706253
  H   4.89153263488777      1.05781816542708      0.02667902940922
  H   3.66049762059140      1.40474948308070     -2.10199932989570
  H   1.18848610112775      1.36969948042698     -2.12746889923135
