20
Coordinates from ORCA-job opt
  C   0.99981094588940      0.90392849017263     -0.00764395478291
  C   -0.45305010211469      0.82793630151662      0.00368935056321
  C   1.76176136740831     -0.07654715859527      0.64368926812956
  C   1.67043994873862      1.96042391779363     -0.64113597808320
  N   -1.24386205678254      1.94817697497762     -0.06249115506257
  C   -1.31265382959451     -0.26515548916158      0.05398155928112
  C   -2.56666979110579      1.60487128588999     -0.03779528286547
  H   -0.89096749955786      2.89168867918878     -0.01952382793419
  C   -2.63693473669136      0.22402586477466      0.02564718169292
  H   -3.34056924786498      2.35532763698164     -0.05777096496935
  H   -3.54542057393434     -0.35752848054418      0.03836324211064
  H   -1.00292940715980     -1.29907418874874      0.06664402923917
  C   3.15040491087645     -0.00594550483666      0.65263509626228
  H   1.25484119017914     -0.90118404079092      1.13319219012792
  C   3.80643487511691      1.05738843285665      0.03325687308077
  H   3.72277589667437     -0.77568977920220      1.15845483815431
  C   3.05983572449574      2.03902809379668     -0.61473738378713
  H   4.88856729455372      1.11630953467021      0.04984837105891
  H   3.56024831279388      2.86214412461538     -1.11281265434982
  H   1.10473577807932      2.70747530464507     -1.18938979786616
