20
Coordinates from ORCA-job opt
  C   0.99838127572639      0.96204004968898     -0.02448807478035
  C   -0.45497053120035      0.90176512099523     -0.06473322361028
  C   1.70652140539536      0.75351268549787      1.16816665010365
  C   1.72457483922740      1.19537697473216     -1.20094052472848
  N   -1.23323375211671      1.23310954420639      1.01682187133475
  C   -1.32525782325260      0.51337914461035     -1.07845143785863
  C   -2.55882748620260      1.08407020106455      0.71877861919206
  H   -0.87424635923798      1.63519628247213      1.86884877914615
  C   -2.64317693125824      0.62601986854390     -0.58438565306633
  H   -3.32490300387521      1.31928686850068      1.44011848573529
  H   -3.55634786349810      0.39055233621290     -1.10822349392736
  H   -1.02408509372245      0.14949063188520     -2.04900220306879
  C   3.09735147983680      0.79630819127325      1.18634294365968
  H   1.16704846634481      0.55491261767816      2.08912376697892
  C   3.80835264076425      1.02153949881608      0.00947371030166
  H   3.62730082625570      0.63595280917923      2.11879548291194
  C   3.11467220845176      1.21883985315884     -1.18386862403958
  H   4.89185745019442      1.04680051833341      0.02248899526950
  H   3.65914131528250      1.40228705170576     -2.10359807352839
  H   1.18664493688484      1.37716275144492     -2.12516799602542
