26
Coordinates from ORCA-job mp2_opt
  C   2.22157341336455      0.78317539119915     -0.00022847802490
  C   1.14821742428294     -0.15375468794645      0.00035518707248
  C   1.49432884189748     -1.52084493755695      0.00089866545031
  C   2.83027084125195     -1.88949651386055      0.00060635242451
  C   3.86296477877528     -0.93475823463893     -0.00020573265781
  C   3.56779727118563      0.41766936180853     -0.00056065077136
  C   -0.07749328635805      0.60924715096257      0.00056642921844
  H   0.74619747389404     -2.30017630034331      0.00187296076444
  H   3.08488379017404     -2.94335412698558      0.00102035191129
  H   4.89683167758944     -1.25987342601391     -0.00043809779282
  H   4.35317346177285      1.16660580935926     -0.00105671848636
  C   -1.47541393904518      0.16872895422465      0.00043207968605
  C   -1.83826273478593     -1.18583031267559     -0.00047938030669
  C   -2.51854113393994      1.11157490954728      0.00069354178966
  C   -3.17423406274045     -1.57976197793920     -0.00083912790912
  H   -1.07692181390561     -1.95024716280957     -0.00130258524029
  C   -3.85160996636053      0.72122446101651      0.00038101814028
  H   -2.29125759293657      2.17115264143443      0.00133592577176
  C   -4.19125103900055     -0.63072927727418     -0.00034470277942
  H   -3.41586647794404     -2.63694356057288     -0.00152151843904
  H   -4.62862822672143      1.47787961408445      0.00067139747043
  H   -5.23086356613834     -0.93675256965718     -0.00059521613280
  N   1.67361116435130      2.03855293164827     -0.00034343888960
  H   2.19369121310695      2.90128982764175     -0.00075312741759
  C   0.31137779021546      1.94105412988518      0.00009811135991
  H   -0.29053330198530      2.83632190546226     -0.00007524621178
