26
Coordinates from ORCA-job mp2_opt
  C   2.23105192029510      0.75925632057700     -0.11389417480791
  C   1.12562407652501     -0.12338048681241      0.02438415660793
  C   1.37860933668561     -1.48323691092373      0.27697409437188
  C   2.69254555307118     -1.91714559545228      0.34810145433927
  C   3.77127864814178     -1.02586532777313      0.18460939215517
  C   3.55581565302212      0.32473586309378     -0.04105793026053
  C   -0.06536115663975      0.66987879575475     -0.07988625086342
  H   0.56163707006794     -2.17950106335982      0.42890397770731
  H   2.89833085768490     -2.96413456759837      0.54050657404814
  H   4.78665232666663     -1.40062065626702      0.24449010232686
  H   4.38580532022128      1.01535756479272     -0.14922452174938
  C   -1.45454590721384      0.22107843686100     -0.03981801843810
  C   -2.44666041216361      1.01195516182406      0.55779385355770
  C   -1.82804948801642     -1.01186255898260     -0.59344237890118
  C   -3.77289678207475      0.59248622477344      0.58513886347359
  H   -2.16471926761601      1.95064098673319      1.02418389609719
  C   -3.15395552367191     -1.43447281400991     -0.55874162156371
  H   -1.07883642661865     -1.62036217943652     -1.08748114629147
  C   -4.13191780392305     -0.63509413195457      0.03062207007290
  H   -4.52495342255831      1.21771971993750      1.05364571839635
  H   -3.42481939568336     -2.38831932277427     -0.99801311149028
  H   -5.16380499409521     -0.96577309338748      0.05861690129782
  N   1.72473931266119      2.02194289109647     -0.29387706669479
  H   2.27316815072225      2.85260574643980     -0.44859931685702
  C   0.35457662078663      1.97287636302376     -0.27860373511956
  H   -0.23394726627672      2.86348763382461     -0.44479278141474
