26
Coordinates from ORCA-job mp2_opt
  C   2.21635039858978      0.77931145946628     -0.09454513833494
  C   1.14199274695925     -0.13964331586223      0.06668368108287
  C   1.46562502559696     -1.49812640969374      0.25075359649972
  C   2.79464641047205     -1.88910921056405      0.21475032369457
  C   3.83266399775483     -0.95897661097496      0.01849284899381
  C   3.55611883190053      0.39041945191482     -0.12879690235779
  C   -0.07510022924732      0.62912958379237      0.08126812323286
  H   0.69913556381839     -2.23770608254875      0.44310100248914
  H   3.04250911920386     -2.93564813490111      0.35210096750248
  H   4.86093303544516     -1.30076194006795     -0.00708402774587
  H   4.35148330362046      1.11742031543566     -0.25687281910545
  C   -1.46505364715439      0.17322112581996      0.08064332107835
  C   -1.80696722632085     -1.14471739406268     -0.25607817567635
  C   -2.51292696681069      1.08098879625758      0.30660052736260
  C   -3.13850703666637     -1.54718283720882     -0.32378400436846
  H   -1.02917036717672     -1.85390499908138     -0.50477823083322
  C   -3.84206361629357      0.68176442798585      0.23367944422559
  H   -2.28353890453887      2.10505637099262      0.58115913240825
  C   -4.16427130853361     -0.63813640298039     -0.07916913228233
  H   -3.37260225691619     -2.57359237114604     -0.58424852644824
  H   -4.62887501966183      1.40411062462307      0.42144822133117
  H   -5.20038322534156     -0.95181932112772     -0.13189308845826
  N   1.67243596510427      2.03477114088039     -0.18174232757730
  H   2.19227458101988      2.88679075015723     -0.31830650944984
  C   0.31042532950469      1.94990824881956     -0.08826342124338
  H   -0.29788450432813      2.83601073407445     -0.18945788601997
