26
Coordinates from ORCA-job mp2_opt
  C   2.21621971756565      0.78128263312635     -0.07721030568751
  C   1.14390618942049     -0.14428853298463      0.06377740160156
  C   1.47823620638204     -1.50525448058404      0.21255496404629
  C   2.80923124639080     -1.88834706742169      0.16410985469027
  C   3.84282544406926     -0.94966912248369     -0.01056988651350
  C   3.55786002835290      0.40094164797845     -0.12414213771918
  C   -0.07618487529406      0.62205937023787      0.09520571492695
  H   0.72132893623386     -2.25789212070596      0.38806595567852
  H   3.06120774711198     -2.93707557113679      0.27482821224316
  H   4.87269363626601     -1.28560791039018     -0.04648544109790
  H   4.34814918359524      1.13605006523418     -0.23669738112760
  C   -1.46908893709594      0.17113508078399      0.08475799202472
  C   -1.81425778444636     -1.16345918424731     -0.17412179932523
  C   -2.51812356062819      1.09522555693961      0.22667750737916
  C   -3.14645906909488     -1.56361299511842     -0.24590165880045
  H   -1.03898709748100     -1.89425756808844     -0.35489969498725
  C   -3.84757207607121      0.69830299259899      0.15239577348624
  H   -2.29362013179445      2.13541679416915      0.43541459824916
  C   -4.17200990904995     -0.63710910261403     -0.08244014665293
  H   -3.37975348900124     -2.60397740669553     -0.44430272269780
  H   -4.63312553922878      1.43606846001544      0.27426193199374
  H   -5.20865359943526     -0.94861324416496     -0.13735481745885
  N   1.66990299718230      2.03685368040730     -0.13609598546368
  H   2.18829162111543      2.89321653672957     -0.24905686152215
  C   0.30900280288920      1.94718032292214     -0.04376301163054
  H   -0.29746768795384      2.83674516549264     -0.11959105563520
