26
Coordinates from ORCA-job mp2_opt
  C   2.22111875019067      0.77327094930031     -0.10753203795743
  C   1.13727600608439     -0.13310085988333      0.05468592947099
  C   1.43616218465272     -1.49065122136459      0.27494580229454
  C   2.76109475628552     -1.89648488286097      0.27947541685818
  C   3.81292632352448     -0.98054352659997      0.08556112253912
  C   3.55680011942996      0.36836411653990     -0.10124455301685
  C   -0.07218855442680      0.64259526747101      0.02139064692006
  H   0.64975633964642     -2.21225276070247      0.45959532123405
  H   2.99569906493801     -2.94202814623403      0.44471475335219
  H   4.83770312564418     -1.33361259830965      0.09221046566173
  H   4.36446923970776      1.08168660007904     -0.22910965284278
  C   -1.45906334530121      0.18410370338581      0.04269089644420
  C   -1.80784824343792     -1.10151763188745     -0.39588420835895
  C   -2.49358239679264      1.05524974484658      0.41878437583500
  C   -3.13877324677915     -1.50920337276961     -0.42874782864352
  H   -1.03574661904036     -1.77233354651062     -0.75151451599661
  C   -3.82322702130503      0.65115460684574      0.37744611801605
  H   -2.24712966910681      2.04788281270445      0.78154340527966
  C   -4.15365283576751     -0.63660939773206     -0.04244967309478
  H   -3.38331299339164     -2.50857604111447     -0.77169768247146
  H   -4.60299787793947      1.34110536147619      0.68054878448943
  H   -5.18943883523192     -0.95472077078503     -0.06891455970998
  N   1.68748578582862      2.03010001332010     -0.23807240971084
  H   2.21574075163153      2.87424626855009     -0.39017349458559
  C   0.32179862270484      1.95648557815539     -0.17046647176153
  H   -0.28334943174863      2.84096373407964     -0.30384995024489
