26
Coordinates from ORCA-job mp2_opt
  C   2.24398666354750      0.73490344684203      0.11630934793479
  C   1.12132731241472     -0.12582665891001     -0.00881935594657
  C   1.32982221318047     -1.48884291819253     -0.27466845243473
  C   2.63077895516051     -1.94941838038310     -0.39505573702492
  C   3.73206102473307     -1.07977717402220     -0.25991353291533
  C   3.55587035191493      0.27200334127055     -0.00534218296947
  C   -0.05160299356681      0.67558953803791      0.16727695512900
  H   0.48556688995874     -2.16178286030826     -0.38464911593720
  H   2.81038121706738     -2.99888792314868     -0.59972137763372
  H   4.73679060341811     -1.47443345367857     -0.35968441117454
  H   4.40575340858318      0.93981696717077      0.09114939498961
  C   -1.44275553988885      0.23084357706985      0.06323663885651
  C   -2.32050872028845      0.82638555662121     -0.85136151366513
  C   -1.93048879238649     -0.77415150008830      0.90957160457879
  C   -3.65143832689398      0.42230224009241     -0.92317391506533
  H   -1.94402363252759      1.59696019508855     -1.51631940260467
  C   -3.25849990524498     -1.18461594878070      0.83075086421693
  H   -1.25990147450282     -1.22355612193850      1.63497341832636
  C   -4.12374433136822     -0.58494977064955     -0.08353459608875
  H   -4.31867177253549      0.89061340263553     -1.63841030351686
  H   -3.62218614895744     -1.96291411106049      1.49248677253574
  H   -5.15877838184466     -0.90173526617605     -0.14226695842380
  N   1.76120521682725      1.99936030557526      0.34516452720813
  H   2.32531477711753      2.81833651048699      0.50511547122483
  C   0.38801864718776      1.96869697336038      0.37188001866662
  H   -0.18636426110538      2.86547403308552      0.55414984173371
