26
Coordinates from ORCA-job mp2_opt
  C   2.23461131031321      0.75196238540664      0.11452204726931
  C   1.12386393452241     -0.12361859601944     -0.02233879543242
  C   1.36355512971654     -1.48412908556480     -0.28139649890974
  C   2.67387916176186     -1.92623847696471     -0.36655796637298
  C   3.75956544735474     -1.04205543369057     -0.20846471574577
  C   3.55577309422028      0.30876170997920      0.02770449830070
  C   -0.06183242237531      0.67283153594042      0.10346501572679
  H   0.53824376324532     -2.17303647886120     -0.42397293282260
  H   2.87183388900853     -2.97372011415592     -0.56445608431207
  H   4.77190871836528     -1.42306558141197     -0.27963555785400
  H   4.39188297376868      0.99221739408903      0.13427537930643
  C   -1.45087421805062      0.22490278942126      0.04255378367667
  C   -1.84321796710157     -0.97166412287397      0.65915286074488
  C   -2.42354921974278      0.98643458849997     -0.62026170646645
  C   -3.16925168631209     -1.39257932029074      0.61384680704524
  H   -1.10637108341849     -1.55402233905127      1.20181230433532
  C   -3.75071558466068      0.56931784119491     -0.65755357936682
  H   -2.12471336319231      1.89814772343660     -1.12781024199531
  C   -4.12835353289887     -0.62393536078033     -0.04387742068605
  H   -3.45589875149414     -2.31860614077514      1.10008522218853
  H   -4.48884300910942      1.16979634743816     -1.17780330466335
  H   -5.16073346912023     -0.95244918865391     -0.07906353073862
  N   1.73535957770321      2.01536946725733      0.30999640292868
  H   2.28865015750280      2.84183399490078      0.46968645422918
  C   0.36417977415819      1.97255632560600      0.30601589547332
  H   -0.22003262416454      2.86474113592365      0.47922466414114
