26
Coordinates from ORCA-job mp2_opt
  C   2.25321585309778      0.71333344094030     -0.09262795849995
  C   1.10588375882796     -0.11888304802155     -0.00527519927404
  C   1.27087285752271     -1.49434039005002      0.22328331031687
  C   2.55644022992180     -1.99513671798744      0.34759388699574
  C   3.68352130763593     -1.15349556959294      0.25225405501852
  C   3.54963033352893      0.20940237886040      0.03281898817225
  C   -0.04193500691752      0.71792236499883     -0.17807073754316
  H   0.40547875390655     -2.14490291614600      0.29961967564693
  H   2.70394047669865     -3.05477648722865      0.52355146951836
  H   4.67517495388706     -1.57941583861814      0.35436887303420
  H   4.41975323309877      0.85429106315705     -0.03517320537585
  C   -1.44456557346860      0.29660064249371     -0.09537078880656
  C   -1.97751361727723     -0.57967635066722     -1.04973533562694
  C   -2.25269778652158      0.70167623964966      0.97406900595030
  C   -3.29605020583882     -1.01690290904010     -0.95240498357539
  H   -1.35053267128119     -0.90440493929300     -1.87388068528112
  C   -3.57413031488191      0.27109346108889      1.06679586258449
  H   -1.83269357401038      1.35485719678324      1.73210822299504
  C   -4.09885559560343     -0.58968969834313      0.10443165897983
  H   -3.69841877165564     -1.68830119808888     -1.70291374890174
  H   -4.19070235416588      0.59778187413474      1.89687540889236
  H   -5.12594440011355     -0.92835330262511      0.17936699917288
  N   1.80802657726740      1.99548766904441     -0.29696353624269
  H   2.39588878878813      2.80340390414234     -0.42407049577970
  C   0.43451668227218      2.00255305260858     -0.34448372014789
  H   -0.11265893471811      2.92004307780002     -0.50572402222271
