26
Coordinates from ORCA-job mp2_opt
  C   2.24771543983055      0.72397764599538      0.10484803866190
  C   1.10949208800903     -0.11921263275830      0.00266166963912
  C   1.29232855549884     -1.48765285431019     -0.25438525164046
  C   2.58392690351355     -1.97055729367060     -0.38740585333453
  C   3.70101573435373     -1.11824970866552     -0.27391019961534
  C   3.55017008264312      0.23850450097842     -0.02944642766353
  C   -0.04777775571425      0.70376925079435      0.18508606897655
  H   0.43603303553086     -2.14762588865310     -0.34846121440040
  H   2.74360226060688     -3.02450091708788     -0.58553161475390
  H   4.69774311207318     -1.53034666904387     -0.38301114727095
  H   4.41206565705804      0.89304929227536      0.04997895821385
  C   -1.44588726976394      0.27686630464453      0.09970790071367
  C   -1.92151710836028     -0.75539333209248      0.91982676803334
  C   -2.31584106417573      0.84700592453492     -0.83840533346105
  C   -3.24021618831470     -1.19052440820853      0.81912657522968
  H   -1.25117362482140     -1.20134610479064      1.64757174219592
  C   -3.63762677606593      0.41826161632478     -0.93209173275903
  H   -1.94185439948659      1.62207973625114     -1.49956623301856
  C   -4.10321759578713     -0.60192874095471     -0.10430916709866
  H   -3.59642034874572     -1.98521093981871      1.46529503615949
  H   -4.30073264161835      0.87165719768789     -1.66065119732358
  H   -5.13048631858059     -0.93940062663646     -0.18154852404702
  N   1.78900141352024      1.99844372760217      0.32734506592934
  H   2.36866851694538      2.80915569704909      0.47324700263324
  C   0.41607957323374      1.99093518260458      0.37261262604155
  H   -0.14026328138252      2.89931303994839      0.55341644395935
