26
Coordinates from ORCA-job mp2_opt
  C   2.25795636100174      0.71262717642732      0.04031571939867
  C   1.10555507449978     -0.11603862076269     -0.00066007794472
  C   1.26127076122123     -1.50817215663570     -0.09287831159655
  C   2.54442744645891     -2.02820584676021     -0.13792816910051
  C   3.67712136117108     -1.18955703943848     -0.09367057254880
  C   3.55199526744709      0.18877576941982     -0.00390837294157
  C   -0.03820863398571      0.73992229866746      0.06352145947443
  H   0.39070569333621     -2.15543957258418     -0.12733589967685
  H   2.68581418616768     -3.10078057640037     -0.20984456797742
  H   4.66664337438057     -1.63071259758613     -0.13119447868567
  H   4.42675200728808      0.83016922513811      0.02840247831173
  C   -1.44356527003383      0.30939655770023      0.03056850255743
  C   -2.07451125520904     -0.13973349830308      1.19700844541618
  C   -2.15708363239465      0.29031387262297     -1.17359342314935
  C   -3.39445559961210     -0.58360879059335      1.16259475793126
  H   -1.52048333107468     -0.13446364659996      2.12999561324485
  C   -3.47844475306578     -0.14990204096763     -1.20773608014252
  H   -1.66489879368375      0.62320426644813     -2.08151888668239
  C   -4.09970635480310     -0.58828959123059     -0.03963279604937
  H   -3.87275999008017     -0.92489592230582      2.07405160264180
  H   -4.02116401312752     -0.15505582615608     -2.14650367121334
  H   -5.12703326943211     -0.93318889629383     -0.06643129059696
  N   1.81896349315425      2.01040340295789      0.12135478360364
  H   2.41042048964344      2.82384974279365      0.17470107462080
  C   0.44404482657979      2.03020569053472      0.13350331156388
  H   -0.09922344584740      2.96174461990780      0.19653684954135
