26
Coordinates from ORCA-job mp2_opt
  C   2.25716699148636      0.71053303349071     -0.06466559405678
  C   1.10484928542846     -0.11711451492504     -0.00410227833470
  C   1.26086731203850     -1.50374359557982      0.15006131938729
  C   2.54382460688489     -2.01964552389963      0.23290774881748
  C   3.67629573510253     -1.18213964715633      0.16740684624126
  C   3.55095555782551      0.19100256454646      0.01822901138989
  C   -0.03862966177788      0.73430170302096     -0.11942689071297
  H   0.39065604094486     -2.15036952094410      0.20144896080257
  H   2.68521977968695     -3.08799454064940      0.35213434687631
  H   4.66569212471895     -1.61984973697147      0.23609378300254
  H   4.42537658128577      0.83194715118118     -0.02894714417702
  C   -1.44387051224200      0.30917485350106     -0.06199006393762
  C   -2.04215674500237     -0.31347175092115     -1.16443047384928
  C   -2.18802433353159      0.45981953978867      1.11435963503461
  C   -3.36135495915150     -0.75571630939466     -1.09902172635011
  H   -1.46405043094283     -0.44160541955770     -2.07380382003296
  C   -3.50880021047906      0.02151601491402      1.17870639121383
  H   -1.71961503830844      0.92294151441853      1.97673231483490
  C   -4.09842737155195     -0.58717500967346      0.07225534690029
  H   -3.81437425633476     -1.23101445037505     -1.96209570412067
  H   -4.07520141447651      0.14823099694299      2.09463178355940
  H   -5.12526627345478     -0.93094587461562      0.12323357391906
  N   1.81859394222509      2.00363971757712     -0.20280757623305
  H   2.41038132728062      2.81419715762945     -0.28748883142524
  C   0.44412358166131      2.02165020835176     -0.23240699643480
  H   -0.09878165931611      2.94943343930053     -0.33921696231423
