26
Coordinates from ORCA-job mp2_opt
  C   2.25170415017431      0.72355616410987     -0.08509221782333
  C   1.11842509927394     -0.12785753425526      0.00083469670620
  C   1.30681433718704     -1.50516123448351      0.19753899849811
  C   2.60123964264068     -1.98855692483260      0.29570416610049
  C   3.71415414100329     -1.12763113272439      0.20451670865934
  C   3.55708982293464      0.23708907894077      0.01404843698480
  C   -0.04406621221676      0.69305297342498     -0.14375960328259
  H   0.45207774039508     -2.17029382411155      0.26856224675683
  H   2.76706503133595     -3.04932156883112      0.44685779211340
  H   4.71335818820786     -1.54013559480177      0.28601313651894
  H   4.41642079440170      0.89648508697455     -0.05224790005153
  C   -1.44164470253321      0.25051793165734     -0.05961895424636
  C   -2.22090253409656      0.55485521963817      1.06305058929466
  C   -2.02530129546743     -0.46330805029456     -1.11385620299779
  C   -3.55208696382838      0.15020357310834      1.13242211958149
  H   -1.76938959116262      1.10404391753385      1.88287969561718
  C   -3.35414651128619     -0.87383739905209     -1.04164018850461
  H   -1.42653172529296     -0.69138409469088     -1.98969284390457
  C   -4.12154404596646     -0.56528649890021      0.08069000078904
  H   -4.14423157468514      0.39130805209660      2.00823926590373
  H   -3.79398066122083     -1.42514477397650     -1.86538095146607
  H   -5.15709408723291     -0.88122485765125      0.13562995875674
  N   1.78400035761643      2.00164167682461     -0.26214313255821
  H   2.35738176390374      2.82192947994293     -0.37515091048872
  C   0.40974428648320      1.98761585510641     -0.29294214091090
  H   -0.15436445056841      2.89900647924725     -0.42794176604628
