26
Coordinates from ORCA-job mp2_opt
  C   2.25438403730394      0.72071335053986      0.06533114835225
  C   1.11486785625079     -0.12408362371747     -0.00161657506183
  C   1.29283060266604     -1.50871471545368     -0.15039751295651
  C   2.58389849594668     -2.00557262227046     -0.22236325550162
  C   3.70327708131643     -1.15108858046888     -0.15101311336166
  C   3.55638516173332      0.22040142141195     -0.00659479325032
  C   -0.04185153202334      0.71044917354262      0.10322735894020
  H   0.43288269967379     -2.16856390552259     -0.20604388512636
  H   2.74207272307546     -3.07202856052686     -0.33735742354594
  H   4.69955070956139     -1.57418372990586     -0.21117153712444
  H   4.42075543280895      0.87447554963981      0.04534334705646
  C   -1.44251107753423      0.26930536076027      0.04508577042790
  C   -2.18571361394438      0.40489862390226     -1.13354545577702
  C   -2.05724382757589     -0.29227535107073      1.17088044272856
  C   -3.51405802816248     -0.01176801891466     -1.18571107059668
  H   -1.70964987315120      0.83596771624051     -2.00822543078668
  C   -3.38418840655444     -0.71244780284638      1.11788047492068
  H   -1.48439730006279     -0.39457124523941      2.08680105149133
  C   -4.11601293477275     -0.57163167264096     -0.06027331367554
  H   -4.07862056836942      0.09925260861534     -2.10480180645212
  H   -3.84886362591575     -1.14427634486234      1.99743859178260
  H   -5.14922763284613     -0.89713796105926     -0.10111055192520
  N   1.79563850907712      2.00737172200884      0.19751078347206
  H   2.37461853083999      2.82700256122652      0.28333240974919
  C   0.42086936431514      2.00498197664728      0.21735057507790
  H   -0.13680378365625      2.92461006996427      0.31851577114282
