26
Coordinates from ORCA-job mp2_opt
  C   2.23111830589134      0.75795666608277      0.11626344548505
  C   1.12774272328267     -0.12559507074999     -0.03099444877536
  C   1.38276429121992     -1.48446304169836     -0.28607802347386
  C   2.69746494378052     -1.91679275899113     -0.35246503519250
  C   3.77439819743050     -1.02470175067649     -0.18109098199836
  C   3.55666525548367      0.32495764042557      0.04833835572831
  C   -0.06487187306347      0.66495686195313      0.07192262892000
  H   0.56659731743435     -2.18075012201433     -0.44286256627042
  H   2.90546055655381     -2.96297663579441     -0.54687160123060
  H   4.79043644308576     -1.39821574119596     -0.23747625855249
  H   4.38558109002681      1.01578369833982      0.16317426138813
  C   -1.45244318110400      0.21232755511656      0.02022561163948
  C   -1.83047952170840     -1.00893288192640      0.59633673412813
  C   -2.44461528880236      1.00575914592559     -0.57356795666074
  C   -3.15839718958673     -1.42570798124901      0.57185483924909
  H   -1.08174468144542     -1.61452199292437      1.09488284617910
  C   -3.77293532284797      0.59215585169107     -0.59067093313648
  H   -2.16063109762997      1.93981813629902     -1.04796173185925
  C   -4.13514228439416     -0.62780969239304     -0.02167499178217
  H   -3.43247973947879     -2.37186686624634      1.02550652387516
  H   -4.52481271260856      1.21765542368737     -1.05911164264613
  H   -5.16882908397036     -0.95347600757828     -0.04096233702599
  N   1.72178455611944      2.01910643946722      0.29887432269665
  H   2.26798604578284      2.84987200026800      0.46072516894059
  C   0.35160718096440      1.96793302139979      0.27686229630451
  H   -0.23928593041583      2.85691210278219      0.44337147407015
