26
Coordinates from ORCA-job mp2_opt
  C   2.22227495288817      0.77550972842807     -0.08843638229794
  C   1.13727128482120     -0.13645382024626      0.03668842817852
  C   1.44352273779813     -1.49773373924214      0.22794128574025
  C   2.77009541697824     -1.89837028795767      0.23550362301472
  C   3.82068949297346     -0.97522929606432      0.07582095534477
  C   3.55953896877126      0.37654653322748     -0.07830516131690
  C   -0.07364168599918      0.64090575594965      0.01601449532971
  H   0.66385892492911     -2.23076482168075      0.39080795533114
  H   3.00597974124157     -2.94694680468640      0.37826608502862
  H   4.84670811905475     -1.32455389075841      0.08407266302904
  H   4.36442773348032      1.09746192733097     -0.17837325431243
  C   -1.46578334433682      0.19540469513806     -0.01411833262043
  C   -2.50223676525201      1.07843322095610      0.33099430666971
  C   -1.81176696082708     -1.12485315987255     -0.33596294382816
  C   -3.83082749242412      0.67036748379396      0.31650213047980
  H   -2.26104789883161      2.09147908796519      0.63526717575744
  C   -3.14224009295616     -1.53618248502808     -0.34346770368431
  H   -1.04108877818949     -1.82155759740680     -0.63812857817412
  C   -4.15947853052690     -0.64287765971272     -0.01721151091481
  H   -4.61058208898616      1.37487032296065      0.58422027645374
  H   -3.38256751890732     -2.56043840822145     -0.60674470890098
  H   -5.19444502969340     -0.96464756772878     -0.02092657329021
  N   1.68989365124635      2.03492640879402     -0.19137802511242
  H   2.21985486722638      2.88361685743666     -0.30843622856582
  C   0.32481885554406      1.95912026761302     -0.14117660080891
  H   -0.27640156002274      2.84824124901251     -0.25932037653002
