26
Coordinates from ORCA-job mp2_opt
  C   2.22398267070001      0.77191599975805      0.09626793049721
  C   1.13416429770327     -0.13291932367739     -0.03434542834209
  C   1.42747459876985     -1.49364549983236     -0.24442979667654
  C   2.75126521002481     -1.90264011497084     -0.26782834870323
  C   3.80866630241315     -0.98751658406608     -0.10409109713214
  C   3.55843383292792      0.36399724266689      0.07049333212580
  C   -0.07196645575906      0.64864877878133      0.00753853690926
  H   0.63814379550094     -2.21680966777442     -0.40763842810432
  H   2.98002695012910     -2.95068834373235     -0.42520213164262
  H   4.83237122006283     -1.34308229932392     -0.12510867002603
  H   4.36943399818672      1.07747990806459      0.17431363246908
  C   -1.46293983982094      0.20188097453091      0.02072168078645
  C   -2.49153522172718      1.06552009247591     -0.38872277540487
  C   -1.81169595306188     -1.10171184981175      0.40180459800006
  C   -3.81949044887134      0.65415676892424     -0.38391081377046
  H   -2.24237969243977      2.06269234430485     -0.73661410122971
  C   -3.14098401716085     -1.51651282962621      0.39843669986422
  H   -1.04411631613048     -1.77838133023212      0.75533759281138
  C   -4.15204142725826     -0.64262479226379      0.00559406554297
  H   -4.59496289352643      1.34176304615991     -0.70295412778301
  H   -3.38601867362355     -2.52691376730190      0.70701078034809
  H   -5.18611392559167     -0.96727649283675      0.00141089764254
  N   1.69768355939824      2.03235408850742      0.22019527271411
  H   2.23205851775843      2.87662488716997      0.34845945927627
  C   0.33120978762300      1.96316370368096      0.17759325511776
  H   -0.26795187622687      2.85185206042486      0.31017698470982
