26
Coordinates from ORCA-job mp2_opt
  C   2.24397823552095      0.73493544666597     -0.11627010537679
  C   1.12133177032036     -0.12582359736513      0.00879799328130
  C   1.32985819913290     -1.48887504629996      0.27444302249193
  C   2.63082527060664     -1.94945108820730      0.39471557534508
  C   3.73209096487591     -1.07977899287346      0.25964681510569
  C   3.55587169675244      0.27203192396058      0.00525686039599
  C   -0.05161188526659      0.67560232867407     -0.16713289456677
  H   0.48561832952043     -2.16184585733435      0.38435969476725
  H   2.81042585440603     -2.99895132794635      0.59922860215279
  H   4.73683526546292     -1.47442205545475      0.35932400233776
  H   4.40575328242911      0.93985457212026     -0.09118847954967
  C   -1.44276206527992      0.23084215701316     -0.06312353267403
  C   -2.32049571158038      0.82626890504810      0.85156807748144
  C   -1.93051765461338     -0.77402014507790     -0.90959952781064
  C   -3.65143584460529      0.42220619568716      0.92333365450364
  H   -1.94400249766977      1.59674520142197      1.51663593328071
  C   -3.25853633590736     -1.18447142076705     -0.83082063285673
  H   -1.25993926370372     -1.22332978578820     -1.63506891287734
  C   -4.12376535249923     -0.58491705242728      0.08355209743971
  H   -4.31864044003871      0.89043843883554      1.63864897411737
  H   -3.62225915592241     -1.96266356718753     -1.49266221487631
  H   -5.15880391378943     -0.90170060780423      0.14222765237774
  N   1.76117298513853      1.99940978025756     -0.34497189760427
  H   2.32525795470991      2.81845778178693     -0.50463838141947
  C   0.38798373728759      1.96874169388637     -0.37160189653958
  H   -0.18641542528754      2.86553811917579     -0.55372647892680
