26
Coordinates from ORCA-job mp2_opt
  C   2.24640321388265      0.73060027021093      0.11023700782888
  C   1.12168119308760     -0.12843867216502     -0.00701409824496
  C   1.32543983918793     -1.49439668779971     -0.26049475686450
  C   2.62491436722992     -1.95951601470533     -0.37890609111622
  C   3.72867175467644     -1.09140201691716     -0.25346364846875
  C   3.55681327821018      0.26296125274801     -0.00961963884004
  C   -0.04900974404883      0.67560227417237      0.16882887163487
  H   0.47858528449212     -2.16573777987232     -0.36059410560432
  H   2.80161031782680     -3.01137693471285     -0.57360688268577
  H   4.73217966880204     -1.48958695421093     -0.35154627741032
  H   4.40886102489634      0.92887528058117      0.08080021939441
  C   -1.44167829416637      0.23160281811049      0.06348697512158
  C   -2.28930812105435      0.75782460319855     -0.91913849353559
  C   -1.96066065421988     -0.69693453878649      0.97553153624594
  C   -3.62188714616858      0.35922066719227     -0.99341834211068
  H   -1.88867273398932      1.47156345766153     -1.63168198884815
  C   -3.29017767114575     -1.10259473185227      0.89498743498813
  H   -1.31208859060972     -1.09267487815594      1.75049510227889
  C   -4.12550068532355     -0.57254969505063     -0.08754816306942
  H   -4.26627068963582      0.77365333571977     -1.76089437074255
  H   -3.67860280204118     -1.82145698172929      1.60793461370382
  H   -5.16183946872101     -0.88487124951765     -0.14760113627485
  N   1.76650641436850      1.99718740293811      0.33294089951434
  H   2.33234653240471      2.81661417137620      0.48409293337386
  C   0.39302748472318      1.96903373715015      0.36346358381859
  H   -0.17964777266407      2.86850186441603      0.53753081591280
