26
Coordinates from ORCA-job mp2_opt
  C   2.24764476883191      0.72421747035631     -0.10491893831761
  C   1.10950176362605     -0.11908190410952     -0.00269065078914
  C   1.29248546865261     -1.48752872073052      0.25423562629510
  C   2.58414166787642     -1.97031505060182      0.38712278626645
  C   3.70114323927266     -1.11789654818970      0.27360940838662
  C   3.55015721483475      0.23885979801956      0.02923449229151
  C   -0.04785323731369      0.70380035859030     -0.18497105380920
  H   0.43626249876429     -2.14759621004016      0.34831994779795
  H   2.74393867099816     -3.02425895466335      0.58515924838624
  H   4.69791604252379     -1.52991387793282      0.38260816029365
  H   4.41199484036102      0.89347822594711     -0.05022189264530
  C   -1.44593502136877      0.27678758295134     -0.09956602073868
  C   -1.92153411993763     -0.75541016241585     -0.91978169057911
  C   -2.31587988070547      0.84678246702363      0.83864375522836
  C   -3.24020964460713     -1.19061822736810     -0.81908158299175
  H   -1.25118831226919     -1.20124419412948     -1.64759833840884
  C   -3.63764137566000      0.41796102825543      0.93232716676581
  H   -1.94189968462963      1.62180672996558      1.49986792239558
  C   -4.10320625230418     -0.60216048821842      0.10444684493516
  H   -3.59640424331275     -1.98525367019177     -1.46532049042435
  H   -4.30075122146972      0.87124084068748      1.66095701182919
  H   -5.13045825704029     -0.93969051313059      0.18168068926444
  N   1.78879396189451      1.99863664933864     -0.32737733854349
  H   2.36836278762725      2.80949518301523     -0.47285460903108
  C   0.41586611972538      1.99102891946458     -0.37243891991130
  H   -0.14056179437034      2.89937226810694     -0.55315553394621
