26
Coordinates from ORCA-job mp2_opt
  C   2.23363938308611      0.75464876489359     -0.11578993787511
  C   1.12374572885121     -0.12204326617057      0.02128318957475
  C   1.36525385438665     -1.48217729475401      0.28093000109696
  C   2.67609871575835     -1.92282304212489      0.36567496965705
  C   3.76077428574678     -1.03757011547544      0.20688227242538
  C   3.55532343399119      0.31296139304014     -0.02935949384194
  C   -0.06277113388367      0.67352931812726     -0.10334963151539
  H   0.54100335371216     -2.17205365001664      0.42466550473771
  H   2.87520955446468     -2.97000516561464      0.56399113032631
  H   4.77356227812594     -1.41745053564515      0.27770985907917
  H   4.39057348904882      0.99742896286697     -0.13616344425159
  C   -1.45163963687596      0.22488429921972     -0.04498481568089
  C   -2.42686440455570      0.98877403804503      0.61146598400842
  C   -1.84065457664229     -0.97708419299404     -0.65314091759889
  C   -3.75340543640459      0.56981907848109      0.64888909350651
  H   -2.13062161972094      1.90417083739506      1.11388397144494
  C   -3.16614460487145     -1.39972984667231     -0.60779746473280
  H   -1.10200418677284     -1.56196725375864     -1.19052137481478
  C   -4.12787423997054     -0.62827656510733      0.04272271930374
  H   -4.49344487483002      1.17245998990016      1.16388749257158
  H   -3.45015745051076     -2.32976890041926     -1.08788809788391
  H   -5.15976235206969     -0.95829557369499      0.07814266136290
  N   1.73322689382199      2.01765445314501     -0.31076417839488
  H   2.28574531820812      2.84463434487134     -0.47047749386087
  C   0.36215867122275      1.97362227086029     -0.30628958568055
  H   -0.22280544331630      2.86526865160224     -0.47970141296382
