26
Coordinates from ORCA-job mp2_opt
  C   2.24127334301574      0.73818191835196     -0.10912582758219
  C   1.11653400876938     -0.12181029524360      0.00674079826320
  C   1.32716151423187     -1.48610354381886      0.26751549713552
  C   2.62824596781371     -1.94760537767328      0.38434897381480
  C   3.73010655497657     -1.07865311456914      0.25312770766921
  C   3.55317037607069      0.27485569234043      0.00941020207754
  C   -0.05494360182948      0.68669289703251     -0.15693382949040
  H   0.48555853744588     -2.16116942984077      0.38142003521134
  H   2.80682365903519     -2.99812487176124      0.58455929233916
  H   4.73471882081649     -1.47444282866514      0.34933755805634
  H   4.40251534218421      0.94427297807847     -0.08052399620450
  C   -1.44828035483980      0.25015839782790     -0.08014512076673
  C   -1.87774227754651     -0.88211505679425     -0.78623683629347
  C   -2.37344312874493      0.93354280242507      0.72008429404930
  C   -3.20017549772516     -1.30934318302940     -0.70541586172870
  H   -1.17101794553686     -1.40964826372136     -1.41849974224874
  C   -3.69836595640669      0.51191813200422      0.79212942848198
  H   -2.03932665349516      1.78925785047236      1.29804595663883
  C   -4.11574917189602     -0.61202057054016      0.08133851209598
  H   -3.51824933095663     -2.18342655382386     -1.26294157225910
  H   -4.40217842067572      1.05254247937544      1.41543858632293
  H   -5.14576038809502     -0.94416865770480      0.14283494441130
  N   1.76232392103749      2.00648482025817     -0.32384746278784
  H   2.32919513679706      2.82492038975473     -0.47698291013587
  C   0.39006834199610      1.98030195034055     -0.35183334261536
  H   -0.18031379644241      2.87983443892406     -0.53327228445455
