26
Coordinates from ORCA-job mp2_opt
  C   2.25315635796738      0.71352409219485      0.09278288982584
  C   1.10589575413803     -0.11878324107042      0.00531165386254
  C   1.27101382505760     -1.49420773470291     -0.22336752336243
  C   2.55663155943060     -1.99487018465434     -0.34769702817809
  C   3.68363578194868     -1.15314016775027     -0.25225518789358
  C   3.54961987739028      0.20972574484990     -0.03268076434153
  C   -0.04199951984260      0.71790395136987      0.17813073429762
  H   0.40568570742889     -2.14484927426822     -0.29978381521951
  H   2.70423644749391     -3.05448029557322     -0.52375140417292
  H   4.67532807112871     -1.57896717486423     -0.35438979417251
  H   4.41968663003687      0.85468152360491      0.03539955281634
  C   -1.44460740106482      0.29649914998217      0.09535423437679
  C   -1.97754385859130     -0.57987006947773      1.04964151126349
  C   -2.25271756697169      0.70161467619897     -0.97408760799173
  C   -3.29605782747687     -1.01714918095658      0.95223141695469
  H   -1.35056625585637     -0.90462746068370      1.87377951665727
  C   -3.57412694663441      0.27097876417086     -1.06689024472749
  H   -1.83270778422495      1.35486798703629     -1.73206156019735
  C   -4.09884648160484     -0.58989334605323     -0.10460237470363
  H   -3.69843007468453     -1.68862118692200      1.70267373311225
  H   -4.19069077284197      0.59769759368806     -1.89696536089757
  H   -5.12591899815468     -0.92859698158417     -0.17959293135751
  N   1.80784427714732      1.99560730694046      0.29728163087825
  H   2.39562237926087      2.80361323161504      0.42420876653252
  C   0.43433138961783      2.00256197076823      0.34469800263094
  H   -0.11292157009796      2.91999330614143      0.50600895400731
