26
Coordinates from ORCA-job mp2_opt
  C   2.22399050381003      0.77188130870404     -0.09623125841976
  C   1.13416346359903     -0.13294934065577      0.03435363785313
  C   1.42746120335908     -1.49367942961821      0.24443726028900
  C   2.75124985868405     -1.90267893997196      0.26785607749126
  C   3.80865991304718     -0.98756038088544      0.10415534830158
  C   3.55843937728803      0.36395573994754     -0.07043381622232
  C   -0.07196184921999      0.64862681469216     -0.00754873374951
  H   0.63812151443401     -2.21683947677231      0.40761905362819
  H   2.98000590746496     -2.95072923906634      0.42522911740082
  H   4.83236183722204     -1.34313481083139      0.12519110970878
  H   4.36944675464105      1.07743502756048     -0.17422556243911
  C   -1.46294188540471      0.20187556117883     -0.02077138255168
  C   -2.49152905455363      1.06552029272244      0.38867814670476
  C   -1.81170932141662     -1.10170961191082     -0.40187413613893
  C   -3.81949179653359      0.65417704336363      0.38383702917879
  H   -2.24236574967150      2.06268327904289      0.73659125807145
  C   -3.14100268984241     -1.51648934971828     -0.39853882559195
  H   -1.04412862106798     -1.77837477502973     -0.75541175760486
  C   -4.15205319335258     -0.64259360151018     -0.00569114174797
  H   -4.59495905745587      1.34178780239194      0.70288481424112
  H   -3.38605364034866     -2.52688249177304     -0.70712742617990
  H   -5.18613005704978     -0.96723312934115     -0.00152746324332
  N   1.69770169441528      2.03232377598129     -0.22015173654393
  H   2.23208326012909      2.87658929651771     -0.34842146359749
  C   0.33122517538108      1.96314153438309     -0.17757744709442
  H   -0.26792254755760      2.85183910059857     -0.31016470174372
