26
Coordinates from ORCA-job mp2_opt
  C   2.25053270557025      0.71799304565532      0.10023464169603
  C   1.10753208003933     -0.11913861346237      0.00290479392907
  C   1.28078746363210     -1.49033532097742     -0.24476692994238
  C   2.56915792235812     -1.98228152825925     -0.37550027756982
  C   3.69156927386330     -1.13592660437291     -0.26842984509685
  C   3.54973307151318      0.22318680788982     -0.03169564045189
  C   -0.04461102030782      0.71006226917064      0.18540589693941
  H   0.41943965917360     -2.14484184801667     -0.33162729874793
  H   2.72224952719391     -3.03858918832734     -0.56602818684350
  H   4.68567047699648     -1.55482492346381     -0.37558016069450
  H   4.41591805595044      0.87246886682708      0.04426282058040
  C   -1.44483455160232      0.28665988366350      0.09937336889007
  C   -1.94800979042819     -0.67583956184591      0.98473995479997
  C   -2.28484194296883      0.78273974741018     -0.90538275869079
  C   -3.26658724823110     -1.11171110082751      0.88366704566663
  H   -1.29841385013343     -1.06812274902746      1.76060066822493
  C   -3.60663020489226      0.35387219269686     -1.00026666575352
  H   -1.88864068095574      1.50280134276140     -1.61404827792624
  C   -4.10098035459318     -0.59428137200856     -0.10625735900049
  H   -3.64486482361224     -1.85113601070871      1.58087790139872
  H   -4.24726364761979      0.75091453615638     -1.77996873280446
  H   -5.12822466840189     -0.93182474418397     -0.18368953809683
  N   1.79904949103850      1.99566025989385      0.31906027224126
  H   2.38314928571105      2.80446928160178      0.45741781911747
  C   0.42578022620353      1.99544879023300      0.36624934112829
  H   -0.12615545549699      2.90766154152207      0.54092814700697
