26
Coordinates from ORCA-job mp2_opt
  C   2.25759823341378      0.71557394116701     -0.00481634742792
  C   1.10842122546964     -0.11865519872729     -0.00093005327074
  C   1.27024253239391     -1.51319116874915      0.00890052542180
  C   2.55559835359430     -2.02966642869512      0.01408584407072
  C   3.68484719833008     -1.18527981185281      0.00973190077668
  C   3.55389090414306      0.19537833109902      0.00013313138516
  C   -0.03879887624284      0.73511660476658     -0.00673920622537
  H   0.40259079484836     -2.16521528397153      0.01249569484482
  H   2.70140682315181     -3.10403817118569      0.02198572654468
  H   4.67623945783413     -1.62378435101214      0.01414883394793
  H   4.42594197211950      0.84125074733863     -0.00282705805285
  C   -1.44360498927615      0.30005989123054     -0.00324124652895
  C   -2.11284493142536      0.04561090727505     -1.20626994918761
  C   -2.12319593637862      0.09813832633940      1.20392106585633
  C   -3.43588064504343     -0.39082379932250     -1.20260779319009
  H   -1.58570007922424      0.19416210458337     -2.14296785842812
  C   -3.44642242344842     -0.33767165644226      1.20793004730599
  H   -1.60364716408494      0.28608893205196      2.13775987678174
  C   -4.10543629158087     -0.58319454104307      0.00460662880624
  H   -3.94349927047480     -0.58154278763532     -2.14170907465876
  H   -3.96214788724547     -0.48723185270477      2.15005942927880
  H   -5.13465622176294     -0.92337734746910      0.00761192727674
  N   1.81349017699279      2.01407216803719     -0.01258659323205
  H   2.40167092950554      2.83160571796402     -0.01780935920815
  C   0.43845019037129      2.02906589973807     -0.01337805092075
  H   -0.10854807598010      2.96053782721990     -0.01942204196625
