26
Coordinates from ORCA-job mp2_opt
  C   2.22093677851690      0.77883835129162     -0.07724621643818
  C   1.14049545244679     -0.14071876744004      0.03638614123785
  C   1.45988442657941     -1.50291007331571      0.20235073873284
  C   2.78926142769512     -1.89438383024125      0.19641011520903
  C   3.83320215119435     -0.96231649129084      0.04845302337728
  C   3.56096069881247      0.38967046911651     -0.08047844153129
  C   -0.07517460841779      0.63193238723363      0.03434202204242
  H   0.69035260214803     -2.24750374342852      0.35754252466261
  H   3.03190421864422     -2.94387428863025      0.31984220292649
  H   4.86159557002444     -1.30460343000374      0.04588509936859
  H   4.35947268068405      1.11880833094493     -0.17181431317599
  C   -1.46851873850653      0.18793861861306     -0.00975551954565
  C   -2.51001531692611      1.09002445597807      0.26595122709183
  C   -1.81559992333178     -1.14641442819867     -0.26582253810501
  C   -3.83952979277288      0.68627700800525      0.24554522001693
  H   -2.27532680947101      2.11832310736987      0.51875448338945
  C   -3.14753165285632     -1.55330911543904     -0.28135389506088
  H   -1.04455288654453     -1.86358848843017     -0.51113466640554
  C   -4.16776906723278     -0.64148714026713     -0.02508026413631
  H   -4.62108807366993      1.40747099426526      0.45799508608175
  H   -3.38549181024820     -2.58984789421062     -0.49373540573356
  H   -5.20387494422438     -0.95940601572761     -0.03408227222146
  N   1.68278054149752      2.03707978788871     -0.15727440473611
  H   2.20868057288005      2.89034571183337     -0.25837115573851
  C   0.31903512332188      1.95427053523215     -0.10335298103218
  H   -0.28372362024297      2.84427994885116     -0.20358881027643
