26
Coordinates from ORCA-job mp2_opt
  C   2.23879586836386      0.74453537499558     -0.11628106327891
  C   1.12264981632312     -0.12442033158637      0.01432921520285
  C   1.34707078773099     -1.48552823099595      0.27998905728166
  C   2.65303434871367     -1.93522763272051      0.38822827052924
  C   3.74615740083196     -1.05744562238964      0.24319898441447
  C   3.55560777449698      0.29315093901101     -0.00638941362274
  C   -0.05720625118626      0.67260588907684     -0.14443011179970
  H   0.51216959729169     -2.16715030744135      0.40397338622241
  H   2.84248109345485     -2.98312678232893      0.59214718107943
  H   4.75491469928122     -1.44408372627723      0.33306502667974
  H   4.39843264702028      0.96920900531694     -0.10721410799869
  C   -1.44644803592918      0.22592906020209     -0.05452253284450
  C   -2.37830190822314      0.92656527190508      0.72261200538407
  C   -1.87970819683453     -0.89638096012473     -0.77411815805521
  C   -3.70769388922001      0.51673713046775      0.77862251528591
  H   -2.04509275136428      1.78349089996207      1.29930624576458
  C   -3.20673793782931     -1.31176047818520     -0.70926868655745
  H   -1.17069048533961     -1.42841445649925     -1.40005367231780
  C   -4.12585292171285     -0.60510210912234      0.06503091440412
  H   -4.41567832644369      1.06787076034679      1.38784464730158
  H   -3.52674353936901     -2.18083960215742     -1.27345773575125
  H   -5.15970693839396     -0.92735567232148      0.11325900597812
  N   1.74680566931479      2.00732733294488     -0.33408390202390
  H   2.30503979915357      2.82967350359257     -0.49762756360920
  C   0.37460066801442      1.96902868680481     -0.34998860750927
  H   -0.20526898814556      2.86232405752401     -0.53211290015955
