26
Coordinates from ORCA-job mp2_opt
  C   2.23103802092590      0.75929879122684      0.11397100116953
  C   1.12562348193175     -0.12334422219351     -0.02436977415069
  C   1.37862455440602     -1.48318748104053     -0.27700703156901
  C   2.69256597856185     -1.91708796415293     -0.34810778065564
  C   3.77128751656968     -1.02580454750772     -0.18454482624003
  C   3.55580614601421      0.32478754044185      0.04116182291813
  C   -0.06537351448494      0.66989831151076      0.07989198944077
  H   0.56166106607740     -2.17945022929910     -0.42899181762312
  H   2.89835907016003     -2.96406892341206     -0.54054629884371
  H   4.78666928213644     -1.40054380991001     -0.24440323269708
  H   4.38579302189296      1.01540514333281      0.14937598920519
  C   -1.45455098273559      0.22107849985117      0.03977771444137
  C   -2.44666664467049      1.01194805619681     -0.55784079390754
  C   -1.82804410189934     -1.01188147025328      0.59336790897943
  C   -3.77289390247170      0.59245221648198     -0.58523099413554
  H   -2.16472958778301      1.95064976168780     -1.02420133628828
  C   -3.15394079247461     -1.43451809834287      0.55862339747185
  H   -1.07883359904232     -1.62037870843218      1.08741340196172
  C   -4.13190303590274     -0.63514805967951     -0.03075162498284
  H   -4.52494982300410      1.21768275713396     -1.05374298385555
  H   -3.42479871365957     -2.38837871820841      0.99786797418638
  H   -5.16378152575209     -0.96585180023508     -0.05877885402259
  N   1.72470703397622      2.02197356471985      0.29397643801947
  H   2.27312125499083      2.85263730152270      0.44874566312533
  C   0.35454435487484      1.97289430820437      0.27866042632823
  H   -0.23399055863762      2.86349578035629      0.44486362172421
