26
Coordinates from ORCA-job mp2_opt
  C   2.25505520170225      0.71171417621223      0.07947964929654
  C   1.10363025420179     -0.11612522933958      0.00654112618249
  C   1.26104865870452     -1.49737624832451     -0.18923916082448
  C   2.54407762284830     -2.00812220777992     -0.29824529511623
  C   3.67557347188600     -1.17059590296107     -0.21893243588722
  C   3.54891775435345      0.19757411805572     -0.03030311389847
  C   -0.04010214072928      0.72936457488898      0.15983294220117
  H   0.39174449869383     -2.14426064289936     -0.25153685378642
  H   2.68611944108753     -3.07240964290784     -0.44882831735316
  H   4.66513436110974     -1.60415134945525     -0.30843557959105
  H   4.42250993480188      0.83883860568239      0.02672396660816
  C   -1.44439236956655      0.30823453326814      0.08537820046511
  C   -2.00719899791940     -0.46308841936314      1.11023923636877
  C   -2.22081267660270      0.60213444348356     -1.04216689732171
  C   -3.32428524193220     -0.90698911441205      1.02174465822489
  H   -1.40371119265391     -0.70343332096264      1.97954479870936
  C   -3.54047998474155      0.16434650153526     -1.12759821962827
  H   -1.77784740387344      1.17463177337028     -1.85065805232374
  C   -4.09523947408873     -0.59106231665003     -0.09604971213204
  H   -3.74995100243865     -1.49689798685790      1.82595228752786
  H   -4.13240827590721      0.40343620192355     -2.00412365640785
  H   -5.12104833967540     -0.93491470140696     -0.16469852860542
  N   1.81588500840239      1.99985872738065      0.25723585830741
  H   2.40742832958846      2.80798358504614      0.36414456293166
  C   0.44199654580970      2.01454457311871      0.30142032744004
  H   -0.10130298306083      2.93798426935463      0.43976320861262
