26
Coordinates from ORCA-job mp2_opt
  C   2.23789481416080      0.74549912687980      0.11140053376146
  C   1.12020304549142     -0.12265163232156     -0.01381954011115
  C   1.34545646292965     -1.48508512093272     -0.27385247832394
  C   2.65133256765252     -1.93653160834032     -0.37620180320658
  C   3.74510825927503     -1.05958878618291     -0.23279443160447
  C   3.55457482649211      0.29260978055822      0.00721681382905
  C   -0.05855822574516      0.67943720305518      0.13315346518917
  H   0.51190302565082     -2.16740486991643     -0.40099132772955
  H   2.83972026886199     -2.98556724132176     -0.57520028061737
  H   4.75371782218050     -1.44771819226587     -0.31749197059157
  H   4.39728261464774      0.96932551510373      0.10455430493708
  C   -1.44960457866832      0.23723116673234      0.06350656411527
  C   -1.85936938908103     -0.93094695867844      0.72144321312462
  C   -2.39957357247261      0.96345389064411     -0.66754814379477
  C   -3.18362153763440     -1.35503411547838      0.65641963134706
  H   -1.13677222028439     -1.48853999267305      1.30799586033921
  C   -3.72570992423704      0.54417798434572     -0.72375513816854
  H   -2.08372923717539      1.84975242214470     -1.20860993161735
  C   -4.12210359834129     -0.61816872175467     -0.06448057177257
  H   -3.48512284046176     -2.25802315737695      1.17583719726930
  H   -4.44756864684430      1.11748591146257     -1.29502904508237
  H   -5.15331855145959     -0.94849081662487     -0.11426855281365
  N   1.74858158637999      2.01122634168210      0.31737692371117
  H   2.30864930898685      2.83375481830857      0.47366190693474
  C   0.37677526158574      1.97628151655547      0.33130548308685
  H   -0.20073054188986      2.87192153639545      0.50933431778891
