26
Coordinates from ORCA-job mp2_opt
  C   2.22042484544828      0.78176799988558     -0.05882064841499
  C   1.14397798242292     -0.14601113180312      0.03036245062651
  C   1.47646225894341     -1.50992718603851      0.15678912371049
  C   2.80880462199053     -1.89118355323569      0.14262432135544
  C   3.84665125611757     -0.94889823998163      0.02314074795436
  C   3.56330084747425      0.40339084618489     -0.07060084513389
  C   -0.07660440130003      0.62184290570598      0.04203711043748
  H   0.71732770847964     -2.26887510931735      0.28731418721416
  H   3.05768488315009     -2.94227368071442      0.23634300022166
  H   4.87750166715953     -1.28347079158844      0.01363421819632
  H   4.35540645783001      1.14163596278660     -0.14276826953202
  C   -1.47164181409567      0.17950823536178     -0.00753597620084
  C   -2.51557679401932      1.10122636171308      0.18304430780277
  C   -1.82360983858722     -1.16672785395366     -0.18243104089882
  C   -3.84637795142502      0.70277405154674      0.16267243467810
  H   -2.28566629661394      2.14494743097970      0.36561161757114
  C   -3.15719318881197     -1.56843574336615     -0.20021052405437
  H   -1.05467471255819     -1.90516566456687     -0.35702616378695
  C   -4.17754501381405     -0.63833032652231     -0.02607918732577
  H   -4.62749176444954      1.44094685996264      0.30808087037339
  H   -3.39532295702507     -2.61610481384466     -0.34777524371670
  H   -5.21507031882359     -0.95144194691743     -0.03622634152725
  N   1.67699681499570      2.03868688519433     -0.11165061954977
  H   2.19940980304137      2.89676604264781     -0.18665384056699
  C   0.31434449697090      1.94859369935612     -0.06285006479458
  H   -0.28847859250057      2.84078076052500     -0.13647162463890
