26
Coordinates from ORCA-job mp2_opt
  C   2.22157229290828      0.78318704252233      0.00004517971603
  C   1.14822512393079     -0.15375716432757     -0.00002456416165
  C   1.49434801510735     -1.52084442178128     -0.00014320437769
  C   2.83029274545787     -1.88948441672652     -0.00010487959482
  C   3.86297724199974     -0.93473253889968     -0.00000082489586
  C   3.56779783648194      0.41769286187587      0.00008166908409
  C   -0.07749282658947      0.60923522545913     -0.00004959645432
  H   0.74621817162215     -2.30017779897887     -0.00029084757972
  H   3.08492269625377     -2.94333767166099     -0.00019965799649
  H   4.89684775229335     -1.25983795204104      0.00002935926611
  H   4.35316845661782      1.16663528100537      0.00013781364613
  C   -1.47541166466217      0.16870881796697      0.00001827167146
  C   -2.51854616290968      1.11154684595333     -0.00012394056405
  C   -1.83825523995789     -1.18585339338750      0.00012949308792
  C   -3.85161311644910      0.72118477266212     -0.00013296944988
  H   -2.29126845860298      2.17112617627423     -0.00025489379799
  C   -3.17422394249521     -1.57979471714350      0.00014424192508
  H   -1.07691283186570     -1.95026860800207      0.00031708397785
  C   -4.19124864025351     -0.63076915369764      0.00000618922073
  H   -4.62863834471091      1.47783329484819     -0.00025208385422
  H   -3.41584394279048     -2.63697911787376      0.00026730297151
  H   -5.23086159057521     -0.93679401345231      0.00000042763123
  N   1.67359753431117      2.03855711601323      0.00005769420900
  H   2.19367515417572      2.90129523055461      0.00014098209485
  C   0.31136543312852      1.94104443357895      0.00002055274786
  H   -0.29055369242616      2.83630686925840      0.00007020147683
