26
Coordinates from ORCA-job mp2_opt
  C   2.24898780203208      0.72680680504992      0.10159385440154
  C   1.12027764433686     -0.12857450741828     -0.00297051431889
  C   1.31651529595918     -1.49916479156420     -0.23598313449025
  C   2.61347767479747     -1.97230690521295     -0.34951886480927
  C   3.72158233442364     -1.10762562280052     -0.23857244291834
  C   3.55691055542847      0.25086383053461     -0.01323600247621
  C   -0.04648729019654      0.68252639771832      0.16343180246057
  H   0.46576078163669     -2.16741698668186     -0.32338101180523
  H   2.78494933578996     -3.02778018352474     -0.52874947714131
  H   4.72297204700773     -1.51203686138933     -0.33279515166688
  H   4.41246501700953      0.91357489513876      0.06716737640311
  C   -1.44149588389747      0.23949033360443      0.06486705925448
  C   -2.25488393079405      0.66758213197001     -0.99139722614672
  C   -1.99280510858397     -0.59319712190023      1.04726104811951
  C   -3.58717222632848      0.26806929821500     -1.06692451003294
  H   -1.82851278173374      1.30798695122874     -1.75671854627743
  C   -3.32235536884685     -0.99930886784122      0.96718070894326
  H   -1.36897832789255     -0.91515130972213      1.87486203061535
  C   -4.12368805596302     -0.56734766471884     -0.08890967135957
  H   -4.20561696809285      0.60637866092784     -1.89092798001952
  H   -3.73681869630831     -1.64300103263657      1.73516281185856
  H   -5.15995870518243     -0.87992704708119     -0.14914399474533
  N   1.77481896455435      1.99800822248688      0.30921489858610
  H   2.34419332902446      2.81757019206586      0.44548253547383
  C   0.40095253349600      1.97604394895957      0.34158340233604
  H   -0.16782597167617      2.88053023459212      0.50159399975554
