26
Coordinates from ORCA-job mp2_opt
  C   2.22614021372658      0.76795327522732      0.10339016930254
  C   1.13137953927699     -0.12981611406662     -0.03028617327624
  C   1.41143266812857     -1.49012881880415     -0.25663323014634
  C   2.73224044920347     -1.90714511794230     -0.29726065001534
  C   3.79664205080092     -0.99980127608339     -0.13297995815274
  C   3.55767994789216      0.35142667452598      0.06053503648272
  C   -0.07000693853181      0.65565589964765      0.03249377082305
  H   0.61252150762296     -2.20403597641233     -0.41696623394853
  H   2.95377655105601     -2.95467548169623     -0.46795325599385
  H   4.81778259431579     -1.36166352617834     -0.16811489123440
  H   4.37499244283133      1.05743069535098      0.16595371085350
  C   -1.46038948789330      0.20803083281577      0.02773481841885
  C   -2.47851936084377      1.05039085423626     -0.44541029562975
  C   -1.81488945827680     -1.07565183825804      0.46679957495320
  C   -3.80591943046778      0.63623776018524     -0.45159894569031
  H   -2.21908260308826      2.02989218532109     -0.83408781824632
  C   -3.14312765045102     -1.49310365028055      0.45250461170130
  H   -1.05172160981449     -1.73103230816928      0.86866980239789
  C   -4.14504191883243     -0.64082688212810     -0.00680554682212
  H   -4.57527324945723      1.30504696116074     -0.82137419362809
  H   -3.39549692716451     -2.48714743155801      0.80517039566036
  H   -5.17839331216124     -0.96770866433574     -0.01923497936226
  N   1.70596472155183      2.02911094279761      0.24706160370507
  H   2.24471370352909      2.86907466854619      0.38488276380989
  C   0.33819923008355      1.96636147201215      0.21366958592858
  H   -0.25791067303661      2.85531086408611      0.35896332810932
