26
Coordinates from ORCA-job mp2_opt
  C   2.21621783173388      0.78125417563416      0.07715657236493
  C   1.14389717745537     -0.14429991148617     -0.06387350607026
  C   1.47822095104975     -1.50527246325902     -0.21261443813850
  C   2.80921651135975     -1.88836447490400     -0.16417389685580
  C   3.84281680681540     -0.94969288137520      0.01051142272788
  C   3.55785276031631      0.40091523983297      0.12410889877330
  C   -0.07618060054662      0.62205643391878     -0.09534106923009
  H   0.72131230518126     -2.25791706979473     -0.38810759972755
  H   3.06118735590761     -2.93709661225392     -0.27487569436037
  H   4.87268306096137     -1.28563753475345      0.04643487380816
  H   4.34814261935213      1.13601939509197      0.23669965023994
  C   -1.46908657103112      0.17113167844890     -0.08485068731847
  C   -1.81424660549628     -1.16344557131554      0.17412795565791
  C   -2.51812372930029      1.09521254690769     -0.22682314669344
  C   -3.14645193156323     -1.56359087527924      0.24599423966251
  H   -1.03896789498689     -1.89423341537257      0.35493435646454
  C   -3.84757221528576      0.69830284470712     -0.15246410061486
  H   -2.29362746757448      2.13538686547215     -0.43565361050054
  C   -4.17200494854542     -0.63708817815459      0.08251025789965
  H   -3.37974235396668     -2.60393918061258      0.44448675628345
  H   -4.63312882756749      1.43606090382164     -0.27435874248881
  H   -5.20864869327491     -0.94858524565563      0.13747969040101
  N   1.66990202080881      2.03681486984563      0.13619095797251
  H   2.18836015381883      2.89323664728542      0.24838546038707
  C   0.30901227212949      1.94717600658044      0.04365890900341
  H   -0.29744798775078      2.83674580666976      0.11950849035242
