26
Coordinates from ORCA-job mp2_opt
  C   2.22757347886065      0.76357350276788     -0.11529601893614
  C   1.13150058669654     -0.12833633184566      0.03881529632555
  C   1.40213649847705     -1.48623038028807      0.28534740200493
  C   2.72092995300857     -1.90866874803662      0.33225943290734
  C   3.78890347109439     -1.00804395972378      0.15150035488172
  C   3.55719367962112      0.34097059035933     -0.06677381393306
  C   -0.06766527526708      0.65636425252549     -0.04108452865330
  H   0.59581747295540     -2.19092439329055      0.45309521519443
  H   2.93889653271972     -2.95414813198783      0.51937059502068
  H   4.80841057409709     -1.37398694618507      0.19240168832127
  H   4.37866401435581      1.03969595364070     -0.18715121832172
  C   -1.45447838256594      0.20059943178011      0.00106282909893
  C   -1.82101790846994     -1.04392033329373     -0.53125965601899
  C   -2.46292952398440      1.02370518659142      0.52388836788003
  C   -3.15057617111782     -1.45648793265233     -0.52643790752502
  H   -1.06273344049949     -1.67254104449884     -0.98388745094159
  C   -3.79225653294333      0.61424264981492      0.52119607970935
  H   -2.19198789121365      1.97859633956131      0.96305997344196
  C   -4.14203955955776     -0.63047836461442     -0.00008353260509
  H   -3.41399845569790     -2.42170024653600     -0.94492228365391
  H   -4.55537091098600      1.26352972856448      0.93597449381800
  H   -5.17690563479446     -0.95288130144571      0.00365902758251
  N   1.70866039830895      2.02274225705565     -0.28241746945129
  H   2.24798941965533      2.85828066311406     -0.44283451760723
  C   0.33981769864962      1.96306263812774     -0.24434840499269
  H   -0.25707609140248      2.84956192049554     -0.40179095354668
