26
Coordinates from ORCA-job mp2_opt
  C   2.24148513519883      0.73956465801944     -0.11756970150069
  C   1.12181008421952     -0.12483409909772      0.01076924145066
  C   1.33750391804683     -1.48653160043127      0.27900636183221
  C   2.64073989538391     -1.94168677412639      0.39607376454480
  C   3.73830944949178     -1.06841003044567      0.25594177822812
  C   3.55562695789635      0.28237090804341      0.00086764931891
  C   -0.05435676133531      0.67428136627638     -0.15907129784822
  H   0.49746256722216     -2.16340774700765      0.39567424880808
  H   2.82487973075374     -2.99000805249925      0.60264830414406
  H   4.74483886593141     -1.45911842310961      0.35306177834877
  H   4.40238831577305      0.95378809043331     -0.09800082572185
  C   -1.44448543481270      0.22863725747421     -0.06003745060936
  C   -2.35034012407564      0.88171000820481      0.78567934008437
  C   -1.90365979393635     -0.84032468472950     -0.84185432620295
  C   -3.68043094053111      0.47454524665835      0.85098672858588
  H   -1.99616916780461      1.69943991254305      1.40511112549520
  C   -3.23102951605308     -1.25343894423462     -0.76856879324177
  H   -1.21288198438306     -1.33477569185910     -1.51724553668854
  C   -4.12426222942018     -0.59540134242007      0.07584954714530
  H   -4.36889853647852      0.98804864629415      1.51315435529774
  H   -3.57200523596236     -2.08126506574375     -1.38043261342098
  H   -5.15862738025307     -0.91507214234956      0.13026993304331
  N   1.75441518669218      2.00287163622994     -0.34352186206551
  H   2.31581387485847      2.82297826003915     -0.50737384973196
  C   0.38169671739817      1.96859711840646     -0.36600149005689
  H   -0.19499059382041      2.86352648943151     -0.55018740923870
